<?xml version='1.0' encoding='utf-8'?>
<routes xmlns:xsi="http://www.w3.org/2001/XMLSchema-instance" xsi:noNamespaceSchemaLocation="http://sumo.dlr.de/xsd/routes_file.xsd"><trip id="0" depart="0.00" from="C1C0" to="A1A2" /><trip id="1" depart="5.00" from="A0A1" to="C2C1" /><trip id="2" depart="10.00" from="B0B1" to="B0A0" /><trip id="3" depart="15.00" from="B0A0" to="A1B1" /><trip id="4" depart="20.00" from="C2C1" to="A1A2" /><trip id="5" depart="25.00" from="C1C2" to="C2C1" /><trip id="6" depart="30.00" from="C0B0" to="A1A0" /><trip id="7" depart="35.00" from="C0C1" to="B1C1" /><trip id="8" depart="40.00" from="A0B0" to="A0A1" /><trip id="9" depart="45.00" from="A1A0" to="A2B2" /><trip id="10" depart="50.00" from="B0A0" to="B2C2" /><trip id="11" depart="55.00" from="C1B1" to="A0A1" /><trip id="12" depart="60.00" from="C0B0" to="A2B2" /><trip id="13" depart="65.00" from="C2B2" to="C1C0" /><trip id="14" depart="70.00" from="C2B2" to="C0B0" /><trip id="15" depart="75.00" from="B1C1" to="B0A0" /><trip id="16" depart="80.00" from="B2A2" to="C0C1" /><trip id="17" depart="85.00" from="B0B1" to="A0A1" /><trip id="18" depart="90.00" from="A2A1" to="C2B2" /><trip id="19" depart="95.00" from="B1C1" to="B1A1" /><trip id="20" depart="100.00" from="B0B1" to="A1B1" /><trip id="21" depart="105.00" from="A2B2" to="B1A1" /><trip id="22" depart="110.00" from="A1A2" to="A1A0" /><trip id="23" depart="115.00" from="B1B2" to="A1A2" /><trip id="24" depart="120.00" from="B1B0" to="B1B0" /><trip id="25" depart="125.00" from="C1B1" to="B0B1" /><trip id="26" depart="130.00" from="A0B0" to="C2C1" /><trip id="27" depart="135.00" from="B2A2" to="C0B0" /><trip id="28" depart="140.00" from="A1A2" to="B1B2" /><trip id="29" depart="145.00" from="A1A0" to="C0B0" /><trip id="30" depart="150.00" from="B0C0" to="C1C0" /><trip id="31" depart="155.00" from="C1B1" to="B1B0" /><trip id="32" depart="160.00" from="C0C1" to="A2B2" /><trip id="33" depart="165.00" from="C2B2" to="A1A0" /><trip id="34" depart="170.00" from="A0B0" to="C1C2" /><trip id="35" depart="175.00" from="B0A0" to="B0C0" /><trip id="36" depart="180.00" from="A1A0" to="B0A0" /><trip id="37" depart="185.00" from="A1A2" to="B1B2" /><trip id="38" depart="190.00" from="B0B1" to="B2A2" /><trip id="39" depart="195.00" from="C1C0" to="B1B0" /><trip id="40" depart="200.00" from="A2A1" to="B1B0" /><trip id="41" depart="205.00" from="B1B0" to="A2B2" /><trip id="42" depart="210.00" from="C1C2" to="B0B1" /><trip id="43" depart="215.00" from="C2B2" to="C1C2" /><trip id="44" depart="220.00" from="C1C0" to="A1A0" /><trip id="45" depart="225.00" from="C1B1" to="C1C0" /><trip id="46" depart="230.00" from="A2A1" to="C0B0" /><trip id="47" depart="235.00" from="C2C1" to="B0A0" /><trip id="48" depart="240.00" from="A2A1" to="B2A2" /><trip id="49" depart="245.00" from="B1B2" to="B0B1" /><trip id="50" depart="250.00" from="C1C0" to="C2B2" /><trip id="51" depart="255.00" from="C0B0" to="B0A0" /><trip id="52" depart="260.00" from="C1C2" to="B1A1" /><trip id="53" depart="265.00" from="A0B0" to="B0A0" /><trip id="54" depart="270.00" from="A0B0" to="B1A1" /><trip id="55" depart="275.00" from="B1B2" to="B0B1" /><trip id="56" depart="280.00" from="A1A0" to="A2B2" /><trip id="57" depart="285.00" from="C0C1" to="C2B2" /><trip id="58" depart="290.00" from="B1A1" to="A2B2" /><trip id="59" depart="295.00" from="C1C0" to="B2B1" /><trip id="60" depart="300.00" from="B1B2" to="C1C0" /><trip id="61" depart="305.00" from="B2A2" to="A1B1" /><trip id="62" depart="310.00" from="B0B1" to="A1B1" /><trip id="63" depart="315.00" from="B0A0" to="C2C1" /><trip id="64" depart="320.00" from="C0B0" to="C0B0" /><trip id="65" depart="325.00" from="B0B1" to="C2C1" /><trip id="66" depart="330.00" from="C0C1" to="B1C1" /><trip id="67" depart="335.00" from="C0C1" to="B1B2" /><trip id="68" depart="340.00" from="B1B0" to="B0A0" /><trip id="69" depart="345.00" from="A1B1" to="B2C2" /><trip id="70" depart="350.00" from="B2B1" to="A1A0" /><trip id="71" depart="355.00" from="A0B0" to="A1A2" /><trip id="72" depart="360.00" from="A1B1" to="C1C0" /><trip id="73" depart="365.00" from="A2A1" to="C1C2" /><trip id="74" depart="370.00" from="B1C1" to="C1B1" /><trip id="75" depart="375.00" from="A1A0" to="B1B2" /><trip id="76" depart="380.00" from="B1B2" to="C1B1" /><trip id="77" depart="385.00" from="B2A2" to="B2C2" /><trip id="78" depart="390.00" from="B0B1" to="C0B0" /><trip id="79" depart="395.00" from="A0A1" to="C1C2" /><trip id="80" depart="400.00" from="C2C1" to="A1A2" /><trip id="81" depart="405.00" from="C1C2" to="C0B0" /><trip id="82" depart="410.00" from="B0B1" to="C1C0" /><trip id="83" depart="415.00" from="B1A1" to="A1A2" /><trip id="84" depart="420.00" from="B0C0" to="B1C1" /><trip id="85" depart="425.00" from="A2A1" to="B2A2" /><trip id="86" depart="430.00" from="A0A1" to="C2C1" /><trip id="87" depart="435.00" from="C2C1" to="B0B1" /><trip id="88" depart="440.00" from="B2C2" to="A2A1" /><trip id="89" depart="445.00" from="B2C2" to="A1A2" /><trip id="90" depart="450.00" from="C1C0" to="B0C0" /><trip id="91" depart="455.00" from="C1C0" to="B2C2" /><trip id="92" depart="460.00" from="C1B1" to="A2B2" /><trip id="93" depart="465.00" from="A1B1" to="B1B0" /><trip id="94" depart="470.00" from="A2A1" to="C0B0" /><trip id="95" depart="475.00" from="B2C2" to="A0A1" /><trip id="96" depart="480.00" from="C1B1" to="B1A1" /><trip id="97" depart="485.00" from="B2B1" to="A0A1" /><trip id="98" depart="490.00" from="A1A2" to="B1B0" /><trip id="99" depart="495.00" from="B0C0" to="B0A0" /><trip id="100" depart="500.00" from="A0B0" to="B0A0" /><trip id="101" depart="505.00" from="C0C1" to="A1A0" /><trip id="102" depart="510.00" from="A1A0" to="C2C1" /><trip id="103" depart="515.00" from="B2B1" to="A1A0" /><trip id="104" depart="520.00" from="C0B0" to="A1B1" /><trip id="105" depart="525.00" from="A1B1" to="C1C2" /><trip id="106" depart="530.00" from="B2B1" to="C0B0" /><trip id="107" depart="535.00" from="A2A1" to="B0B1" /><trip id="108" depart="540.00" from="B2C2" to="C1B1" /><trip id="109" depart="545.00" from="B1C1" to="A2B2" /><trip id="110" depart="550.00" from="C0B0" to="C2C1" /><trip id="111" depart="555.00" from="C2B2" to="A2B2" /><trip id="112" depart="560.00" from="C2B2" to="B0C0" /><trip id="113" depart="565.00" from="B1B2" to="C1C2" /><trip id="114" depart="570.00" from="C1C0" to="B1B0" /><trip id="115" depart="575.00" from="B2A2" to="B2C2" /><trip id="116" depart="580.00" from="B2A2" to="A1A2" /><trip id="117" depart="585.00" from="B0A0" to="B0A0" /><trip id="118" depart="590.00" from="A1A0" to="B1A1" /><trip id="119" depart="595.00" from="A0A1" to="C0C1" /><trip id="120" depart="600.00" from="C0B0" to="B0A0" /><trip id="121" depart="605.00" from="C0C1" to="B0A0" /><trip id="122" depart="610.00" from="A0A1" to="A1A0" /><trip id="123" depart="615.00" from="C2B2" to="C1C0" /><trip id="124" depart="620.00" from="A0B0" to="B0A0" /><trip id="125" depart="625.00" from="A1A0" to="A0B0" /><trip id="126" depart="630.00" from="B1A1" to="A1A0" /><trip id="127" depart="635.00" from="B2C2" to="B0A0" /><trip id="128" depart="640.00" from="B0B1" to="C1C2" /><trip id="129" depart="645.00" from="B2B1" to="A2B2" /><trip id="130" depart="650.00" from="C0B0" to="A1B1" /><trip id="131" depart="655.00" from="C2C1" to="C0C1" /><trip id="132" depart="660.00" from="C0C1" to="B2B1" /><trip id="133" depart="665.00" from="B0A0" to="B2B1" /><trip id="134" depart="670.00" from="B1C1" to="A2B2" /><trip id="135" depart="675.00" from="A1A2" to="A1A2" /><trip id="136" depart="680.00" from="C1C2" to="B1C1" /><trip id="137" depart="685.00" from="B1B0" to="B1C1" /><trip id="138" depart="690.00" from="B1C1" to="B2A2" /><trip id="139" depart="695.00" from="C2C1" to="A0B0" /><trip id="140" depart="700.00" from="C1C2" to="C1C0" /><trip id="141" depart="705.00" from="C1C0" to="A1A2" /><trip id="142" depart="710.00" from="A0B0" to="B1B2" /><trip id="143" depart="715.00" from="C2C1" to="B1A1" /><trip id="144" depart="720.00" from="A1A2" to="B0A0" /><trip id="145" depart="725.00" from="A2B2" to="A2B2" /><trip id="146" depart="730.00" from="C0B0" to="B2A2" /><trip id="147" depart="735.00" from="A1B1" to="B1C1" /><trip id="148" depart="740.00" from="A2A1" to="B0B1" /><trip id="149" depart="745.00" from="B2A2" to="B0A0" /><trip id="150" depart="750.00" from="A1A0" to="B2A2" /><trip id="151" depart="755.00" from="C0B0" to="A1A2" /><trip id="152" depart="760.00" from="A0B0" to="C1C0" /><trip id="153" depart="765.00" from="C0B0" to="A0A1" /><trip id="154" depart="770.00" from="A1A0" to="B0A0" /><trip id="155" depart="775.00" from="A2A1" to="B1C1" /><trip id="156" depart="780.00" from="B2B1" to="B2B1" /><trip id="157" depart="785.00" from="A2B2" to="B1B2" /><trip id="158" depart="790.00" from="A0B0" to="A2A1" /><trip id="159" depart="795.00" from="B1B2" to="A0A1" /><trip id="160" depart="800.00" from="B1B2" to="B0B1" /><trip id="161" depart="805.00" from="B2A2" to="B0C0" /><trip id="162" depart="810.00" from="B1C1" to="C2B2" /><trip id="163" depart="815.00" from="C2C1" to="C0B0" /><trip id="164" depart="820.00" from="C1C2" to="C2B2" /><trip id="165" depart="825.00" from="B2B1" to="A1B1" /><trip id="166" depart="830.00" from="A2B2" to="B0C0" /><trip id="167" depart="835.00" from="A2B2" to="A0B0" /><trip id="168" depart="840.00" from="C0C1" to="C2C1" /><trip id="169" depart="845.00" from="C0B0" to="A0B0" /><trip id="170" depart="850.00" from="C2C1" to="B1A1" /><trip id="171" depart="855.00" from="A0B0" to="A0B0" /><trip id="172" depart="860.00" from="C0C1" to="B2B1" /><trip id="173" depart="865.00" from="B2C2" to="B2C2" /><trip id="174" depart="870.00" from="A2A1" to="A0B0" /><trip id="175" depart="875.00" from="B2C2" to="A1A0" /><trip id="176" depart="880.00" from="A2A1" to="A1A0" /><trip id="177" depart="885.00" from="C1B1" to="A1A0" /><trip id="178" depart="890.00" from="C1C2" to="B0A0" /><trip id="179" depart="895.00" from="B1B2" to="A1A2" /><trip id="180" depart="900.00" from="C0C1" to="B0A0" /><trip id="181" depart="905.00" from="C0C1" to="C1B1" /><trip id="182" depart="910.00" from="A0B0" to="C1B1" /><trip id="183" depart="915.00" from="A1A0" to="B1C1" /><trip id="184" depart="920.00" from="C1C2" to="C0C1" /><trip id="185" depart="925.00" from="C0C1" to="B2C2" /><trip id="186" depart="930.00" from="B1A1" to="B0B1" /><trip id="187" depart="935.00" from="A2B2" to="C1C2" /><trip id="188" depart="940.00" from="C2B2" to="B1A1" /><trip id="189" depart="945.00" from="B0A0" to="B0B1" /><trip id="190" depart="950.00" from="B1B2" to="A1B1" /><trip id="191" depart="955.00" from="C1C2" to="C1C0" /><trip id="192" depart="960.00" from="B0C0" to="B2A2" /><trip id="193" depart="965.00" from="B1A1" to="A1A0" /><trip id="194" depart="970.00" from="A0A1" to="B2A2" /><trip id="195" depart="975.00" from="C1B1" to="C0C1" /><trip id="196" depart="980.00" from="A1A2" to="A1A0" /><trip id="197" depart="985.00" from="C0B0" to="A2B2" /><trip id="198" depart="990.00" from="B2C2" to="B0B1" /><trip id="199" depart="995.00" from="A1B1" to="B1B0" /></routes>