<?xml version="1.0" encoding="UTF-8"?>
<configuration>
    <input>
        <net-file value="generated_grid.net.xml"/>
        <route-files value="trips_100v.trips.xml"/>
    </input>
    <time>
        <begin value="0"/>
        <end value="1000"/>
    </time>
    <report>
        <verbose value="false"/>
        <no-step-log value="true"/>
    </report>
</configuration>