<configuration>
    <grid-network>
        <grid width="3" height="3" length="100.00" />
        <junction cornerDetail="5" />
        <edge streetName="路" />
    </grid-network>
</configuration>