<?xml version='1.0' encoding='utf-8'?>
<routes xmlns:xsi="http://www.w3.org/2001/XMLSchema-instance" xsi:noNamespaceSchemaLocation="http://sumo.dlr.de/xsd/routes_file.xsd"><trip id="0" depart="0.00" from="C1C0" to="A1A2" /><trip id="1" depart="33.33" from="A0A1" to="C2C1" /><trip id="2" depart="66.67" from="B0B1" to="B0A0" /><trip id="3" depart="100.00" from="B0A0" to="A1B1" /><trip id="4" depart="133.33" from="C2C1" to="A1A2" /><trip id="5" depart="166.67" from="C1C2" to="C2C1" /><trip id="6" depart="200.00" from="C0B0" to="A1A0" /><trip id="7" depart="233.33" from="C0C1" to="B1C1" /><trip id="8" depart="266.67" from="A0B0" to="A0A1" /><trip id="9" depart="300.00" from="A1A0" to="A2B2" /><trip id="10" depart="333.33" from="B0A0" to="B2C2" /><trip id="11" depart="366.67" from="C1B1" to="A0A1" /><trip id="12" depart="400.00" from="C0B0" to="A2B2" /><trip id="13" depart="433.33" from="C2B2" to="C1C0" /><trip id="14" depart="466.67" from="C2B2" to="C0B0" /><trip id="15" depart="500.00" from="B1C1" to="B0A0" /><trip id="16" depart="533.33" from="B2A2" to="C0C1" /><trip id="17" depart="566.67" from="B0B1" to="A0A1" /><trip id="18" depart="600.00" from="A2A1" to="C2B2" /><trip id="19" depart="633.33" from="B1C1" to="B1A1" /><trip id="20" depart="666.67" from="B0B1" to="A1B1" /><trip id="21" depart="700.00" from="A2B2" to="B1A1" /><trip id="22" depart="733.33" from="A1A2" to="A1A0" /><trip id="23" depart="766.67" from="B1B2" to="A1A2" /><trip id="24" depart="800.00" from="B1B0" to="B1B0" /><trip id="25" depart="833.33" from="C1B1" to="B0B1" /><trip id="26" depart="866.67" from="A0B0" to="C2C1" /><trip id="27" depart="900.00" from="B2A2" to="C0B0" /><trip id="28" depart="933.33" from="A1A2" to="B1B2" /><trip id="29" depart="966.67" from="A1A0" to="C0B0" /></routes>