<?xml version='1.0' encoding='utf-8'?>
<routes xmlns:xsi="http://www.w3.org/2001/XMLSchema-instance" xsi:noNamespaceSchemaLocation="http://sumo.dlr.de/xsd/routes_file.xsd"><trip id="0" depart="0.00" from="C1C0" to="A1A2" /><trip id="1" depart="3.33" from="A0A1" to="C2C1" /><trip id="2" depart="6.67" from="B0B1" to="B0A0" /><trip id="3" depart="10.00" from="B0A0" to="A1B1" /><trip id="4" depart="13.33" from="C2C1" to="A1A2" /><trip id="5" depart="16.67" from="C1C2" to="C2C1" /><trip id="6" depart="20.00" from="C0B0" to="A1A0" /><trip id="7" depart="23.33" from="C0C1" to="B1C1" /><trip id="8" depart="26.67" from="A0B0" to="A0A1" /><trip id="9" depart="30.00" from="A1A0" to="A2B2" /><trip id="10" depart="33.33" from="B0A0" to="B2C2" /><trip id="11" depart="36.67" from="C1B1" to="A0A1" /><trip id="12" depart="40.00" from="C0B0" to="A2B2" /><trip id="13" depart="43.33" from="C2B2" to="C1C0" /><trip id="14" depart="46.67" from="C2B2" to="C0B0" /><trip id="15" depart="50.00" from="B1C1" to="B0A0" /><trip id="16" depart="53.33" from="B2A2" to="C0C1" /><trip id="17" depart="56.67" from="B0B1" to="A0A1" /><trip id="18" depart="60.00" from="A2A1" to="C2B2" /><trip id="19" depart="63.33" from="B1C1" to="B1A1" /><trip id="20" depart="66.67" from="B0B1" to="A1B1" /><trip id="21" depart="70.00" from="A2B2" to="B1A1" /><trip id="22" depart="73.33" from="A1A2" to="A1A0" /><trip id="23" depart="76.67" from="B1B2" to="A1A2" /><trip id="24" depart="80.00" from="B1B0" to="B1B0" /><trip id="25" depart="83.33" from="C1B1" to="B0B1" /><trip id="26" depart="86.67" from="A0B0" to="C2C1" /><trip id="27" depart="90.00" from="B2A2" to="C0B0" /><trip id="28" depart="93.33" from="A1A2" to="B1B2" /><trip id="29" depart="96.67" from="A1A0" to="C0B0" /><trip id="30" depart="100.00" from="B0C0" to="C1C0" /><trip id="31" depart="103.33" from="C1B1" to="B1B0" /><trip id="32" depart="106.67" from="C0C1" to="A2B2" /><trip id="33" depart="110.00" from="C2B2" to="A1A0" /><trip id="34" depart="113.33" from="A0B0" to="C1C2" /><trip id="35" depart="116.67" from="B0A0" to="B0C0" /><trip id="36" depart="120.00" from="A1A0" to="B0A0" /><trip id="37" depart="123.33" from="A1A2" to="B1B2" /><trip id="38" depart="126.67" from="B0B1" to="B2A2" /><trip id="39" depart="130.00" from="C1C0" to="B1B0" /><trip id="40" depart="133.33" from="A2A1" to="B1B0" /><trip id="41" depart="136.67" from="B1B0" to="A2B2" /><trip id="42" depart="140.00" from="C1C2" to="B0B1" /><trip id="43" depart="143.33" from="C2B2" to="C1C2" /><trip id="44" depart="146.67" from="C1C0" to="A1A0" /><trip id="45" depart="150.00" from="C1B1" to="C1C0" /><trip id="46" depart="153.33" from="A2A1" to="C0B0" /><trip id="47" depart="156.67" from="C2C1" to="B0A0" /><trip id="48" depart="160.00" from="A2A1" to="B2A2" /><trip id="49" depart="163.33" from="B1B2" to="B0B1" /><trip id="50" depart="166.67" from="C1C0" to="C2B2" /><trip id="51" depart="170.00" from="C0B0" to="B0A0" /><trip id="52" depart="173.33" from="C1C2" to="B1A1" /><trip id="53" depart="176.67" from="A0B0" to="B0A0" /><trip id="54" depart="180.00" from="A0B0" to="B1A1" /><trip id="55" depart="183.33" from="B1B2" to="B0B1" /><trip id="56" depart="186.67" from="A1A0" to="A2B2" /><trip id="57" depart="190.00" from="C0C1" to="C2B2" /><trip id="58" depart="193.33" from="B1A1" to="A2B2" /><trip id="59" depart="196.67" from="C1C0" to="B2B1" /><trip id="60" depart="200.00" from="B1B2" to="C1C0" /><trip id="61" depart="203.33" from="B2A2" to="A1B1" /><trip id="62" depart="206.67" from="B0B1" to="A1B1" /><trip id="63" depart="210.00" from="B0A0" to="C2C1" /><trip id="64" depart="213.33" from="C0B0" to="C0B0" /><trip id="65" depart="216.67" from="B0B1" to="C2C1" /><trip id="66" depart="220.00" from="C0C1" to="B1C1" /><trip id="67" depart="223.33" from="C0C1" to="B1B2" /><trip id="68" depart="226.67" from="B1B0" to="B0A0" /><trip id="69" depart="230.00" from="A1B1" to="B2C2" /><trip id="70" depart="233.33" from="B2B1" to="A1A0" /><trip id="71" depart="236.67" from="A0B0" to="A1A2" /><trip id="72" depart="240.00" from="A1B1" to="C1C0" /><trip id="73" depart="243.33" from="A2A1" to="C1C2" /><trip id="74" depart="246.67" from="B1C1" to="C1B1" /><trip id="75" depart="250.00" from="A1A0" to="B1B2" /><trip id="76" depart="253.33" from="B1B2" to="C1B1" /><trip id="77" depart="256.67" from="B2A2" to="B2C2" /><trip id="78" depart="260.00" from="B0B1" to="C0B0" /><trip id="79" depart="263.33" from="A0A1" to="C1C2" /><trip id="80" depart="266.67" from="C2C1" to="A1A2" /><trip id="81" depart="270.00" from="C1C2" to="C0B0" /><trip id="82" depart="273.33" from="B0B1" to="C1C0" /><trip id="83" depart="276.67" from="B1A1" to="A1A2" /><trip id="84" depart="280.00" from="B0C0" to="B1C1" /><trip id="85" depart="283.33" from="A2A1" to="B2A2" /><trip id="86" depart="286.67" from="A0A1" to="C2C1" /><trip id="87" depart="290.00" from="C2C1" to="B0B1" /><trip id="88" depart="293.33" from="B2C2" to="A2A1" /><trip id="89" depart="296.67" from="B2C2" to="A1A2" /><trip id="90" depart="300.00" from="C1C0" to="B0C0" /><trip id="91" depart="303.33" from="C1C0" to="B2C2" /><trip id="92" depart="306.67" from="C1B1" to="A2B2" /><trip id="93" depart="310.00" from="A1B1" to="B1B0" /><trip id="94" depart="313.33" from="A2A1" to="C0B0" /><trip id="95" depart="316.67" from="B2C2" to="A0A1" /><trip id="96" depart="320.00" from="C1B1" to="B1A1" /><trip id="97" depart="323.33" from="B2B1" to="A0A1" /><trip id="98" depart="326.67" from="A1A2" to="B1B0" /><trip id="99" depart="330.00" from="B0C0" to="B0A0" /><trip id="100" depart="333.33" from="A0B0" to="B0A0" /><trip id="101" depart="336.67" from="C0C1" to="A1A0" /><trip id="102" depart="340.00" from="A1A0" to="C2C1" /><trip id="103" depart="343.33" from="B2B1" to="A1A0" /><trip id="104" depart="346.67" from="C0B0" to="A1B1" /><trip id="105" depart="350.00" from="A1B1" to="C1C2" /><trip id="106" depart="353.33" from="B2B1" to="C0B0" /><trip id="107" depart="356.67" from="A2A1" to="B0B1" /><trip id="108" depart="360.00" from="B2C2" to="C1B1" /><trip id="109" depart="363.33" from="B1C1" to="A2B2" /><trip id="110" depart="366.67" from="C0B0" to="C2C1" /><trip id="111" depart="370.00" from="C2B2" to="A2B2" /><trip id="112" depart="373.33" from="C2B2" to="B0C0" /><trip id="113" depart="376.67" from="B1B2" to="C1C2" /><trip id="114" depart="380.00" from="C1C0" to="B1B0" /><trip id="115" depart="383.33" from="B2A2" to="B2C2" /><trip id="116" depart="386.67" from="B2A2" to="A1A2" /><trip id="117" depart="390.00" from="B0A0" to="B0A0" /><trip id="118" depart="393.33" from="A1A0" to="B1A1" /><trip id="119" depart="396.67" from="A0A1" to="C0C1" /><trip id="120" depart="400.00" from="C0B0" to="B0A0" /><trip id="121" depart="403.33" from="C0C1" to="B0A0" /><trip id="122" depart="406.67" from="A0A1" to="A1A0" /><trip id="123" depart="410.00" from="C2B2" to="C1C0" /><trip id="124" depart="413.33" from="A0B0" to="B0A0" /><trip id="125" depart="416.67" from="A1A0" to="A0B0" /><trip id="126" depart="420.00" from="B1A1" to="A1A0" /><trip id="127" depart="423.33" from="B2C2" to="B0A0" /><trip id="128" depart="426.67" from="B0B1" to="C1C2" /><trip id="129" depart="430.00" from="B2B1" to="A2B2" /><trip id="130" depart="433.33" from="C0B0" to="A1B1" /><trip id="131" depart="436.67" from="C2C1" to="C0C1" /><trip id="132" depart="440.00" from="C0C1" to="B2B1" /><trip id="133" depart="443.33" from="B0A0" to="B2B1" /><trip id="134" depart="446.67" from="B1C1" to="A2B2" /><trip id="135" depart="450.00" from="A1A2" to="A1A2" /><trip id="136" depart="453.33" from="C1C2" to="B1C1" /><trip id="137" depart="456.67" from="B1B0" to="B1C1" /><trip id="138" depart="460.00" from="B1C1" to="B2A2" /><trip id="139" depart="463.33" from="C2C1" to="A0B0" /><trip id="140" depart="466.67" from="C1C2" to="C1C0" /><trip id="141" depart="470.00" from="C1C0" to="A1A2" /><trip id="142" depart="473.33" from="A0B0" to="B1B2" /><trip id="143" depart="476.67" from="C2C1" to="B1A1" /><trip id="144" depart="480.00" from="A1A2" to="B0A0" /><trip id="145" depart="483.33" from="A2B2" to="A2B2" /><trip id="146" depart="486.67" from="C0B0" to="B2A2" /><trip id="147" depart="490.00" from="A1B1" to="B1C1" /><trip id="148" depart="493.33" from="A2A1" to="B0B1" /><trip id="149" depart="496.67" from="B2A2" to="B0A0" /><trip id="150" depart="500.00" from="A1A0" to="B2A2" /><trip id="151" depart="503.33" from="C0B0" to="A1A2" /><trip id="152" depart="506.67" from="A0B0" to="C1C0" /><trip id="153" depart="510.00" from="C0B0" to="A0A1" /><trip id="154" depart="513.33" from="A1A0" to="B0A0" /><trip id="155" depart="516.67" from="A2A1" to="B1C1" /><trip id="156" depart="520.00" from="B2B1" to="B2B1" /><trip id="157" depart="523.33" from="A2B2" to="B1B2" /><trip id="158" depart="526.67" from="A0B0" to="A2A1" /><trip id="159" depart="530.00" from="B1B2" to="A0A1" /><trip id="160" depart="533.33" from="B1B2" to="B0B1" /><trip id="161" depart="536.67" from="B2A2" to="B0C0" /><trip id="162" depart="540.00" from="B1C1" to="C2B2" /><trip id="163" depart="543.33" from="C2C1" to="C0B0" /><trip id="164" depart="546.67" from="C1C2" to="C2B2" /><trip id="165" depart="550.00" from="B2B1" to="A1B1" /><trip id="166" depart="553.33" from="A2B2" to="B0C0" /><trip id="167" depart="556.67" from="A2B2" to="A0B0" /><trip id="168" depart="560.00" from="C0C1" to="C2C1" /><trip id="169" depart="563.33" from="C0B0" to="A0B0" /><trip id="170" depart="566.67" from="C2C1" to="B1A1" /><trip id="171" depart="570.00" from="A0B0" to="A0B0" /><trip id="172" depart="573.33" from="C0C1" to="B2B1" /><trip id="173" depart="576.67" from="B2C2" to="B2C2" /><trip id="174" depart="580.00" from="A2A1" to="A0B0" /><trip id="175" depart="583.33" from="B2C2" to="A1A0" /><trip id="176" depart="586.67" from="A2A1" to="A1A0" /><trip id="177" depart="590.00" from="C1B1" to="A1A0" /><trip id="178" depart="593.33" from="C1C2" to="B0A0" /><trip id="179" depart="596.67" from="B1B2" to="A1A2" /><trip id="180" depart="600.00" from="C0C1" to="B0A0" /><trip id="181" depart="603.33" from="C0C1" to="C1B1" /><trip id="182" depart="606.67" from="A0B0" to="C1B1" /><trip id="183" depart="610.00" from="A1A0" to="B1C1" /><trip id="184" depart="613.33" from="C1C2" to="C0C1" /><trip id="185" depart="616.67" from="C0C1" to="B2C2" /><trip id="186" depart="620.00" from="B1A1" to="B0B1" /><trip id="187" depart="623.33" from="A2B2" to="C1C2" /><trip id="188" depart="626.67" from="C2B2" to="B1A1" /><trip id="189" depart="630.00" from="B0A0" to="B0B1" /><trip id="190" depart="633.33" from="B1B2" to="A1B1" /><trip id="191" depart="636.67" from="C1C2" to="C1C0" /><trip id="192" depart="640.00" from="B0C0" to="B2A2" /><trip id="193" depart="643.33" from="B1A1" to="A1A0" /><trip id="194" depart="646.67" from="A0A1" to="B2A2" /><trip id="195" depart="650.00" from="C1B1" to="C0C1" /><trip id="196" depart="653.33" from="A1A2" to="A1A0" /><trip id="197" depart="656.67" from="C0B0" to="A2B2" /><trip id="198" depart="660.00" from="B2C2" to="B0B1" /><trip id="199" depart="663.33" from="A1B1" to="B1B0" /><trip id="200" depart="666.67" from="C1C0" to="A1A2" /><trip id="201" depart="670.00" from="A0A1" to="C2C1" /><trip id="202" depart="673.33" from="B0B1" to="B0A0" /><trip id="203" depart="676.67" from="B0A0" to="A1B1" /><trip id="204" depart="680.00" from="C2C1" to="A1A2" /><trip id="205" depart="683.33" from="C1C2" to="C2C1" /><trip id="206" depart="686.67" from="C0B0" to="A1A0" /><trip id="207" depart="690.00" from="C0C1" to="B1C1" /><trip id="208" depart="693.33" from="A0B0" to="A0A1" /><trip id="209" depart="696.67" from="A1A0" to="A2B2" /><trip id="210" depart="700.00" from="B0A0" to="B2C2" /><trip id="211" depart="703.33" from="C1B1" to="A0A1" /><trip id="212" depart="706.67" from="C0B0" to="A2B2" /><trip id="213" depart="710.00" from="C2B2" to="C1C0" /><trip id="214" depart="713.33" from="C2B2" to="C0B0" /><trip id="215" depart="716.67" from="B1C1" to="B0A0" /><trip id="216" depart="720.00" from="B2A2" to="C0C1" /><trip id="217" depart="723.33" from="B0B1" to="A0A1" /><trip id="218" depart="726.67" from="A2A1" to="C2B2" /><trip id="219" depart="730.00" from="B1C1" to="B1A1" /><trip id="220" depart="733.33" from="B0B1" to="A1B1" /><trip id="221" depart="736.67" from="A2B2" to="B1A1" /><trip id="222" depart="740.00" from="A1A2" to="A1A0" /><trip id="223" depart="743.33" from="B1B2" to="A1A2" /><trip id="224" depart="746.67" from="B1B0" to="B1B0" /><trip id="225" depart="750.00" from="C1B1" to="B0B1" /><trip id="226" depart="753.33" from="A0B0" to="C2C1" /><trip id="227" depart="756.67" from="B2A2" to="C0B0" /><trip id="228" depart="760.00" from="A1A2" to="B1B2" /><trip id="229" depart="763.33" from="A1A0" to="C0B0" /><trip id="230" depart="766.67" from="B0C0" to="C1C0" /><trip id="231" depart="770.00" from="C1B1" to="B1B0" /><trip id="232" depart="773.33" from="C0C1" to="A2B2" /><trip id="233" depart="776.67" from="C2B2" to="A1A0" /><trip id="234" depart="780.00" from="A0B0" to="C1C2" /><trip id="235" depart="783.33" from="B0A0" to="B0C0" /><trip id="236" depart="786.67" from="A1A0" to="B0A0" /><trip id="237" depart="790.00" from="A1A2" to="B1B2" /><trip id="238" depart="793.33" from="B0B1" to="B2A2" /><trip id="239" depart="796.67" from="C1C0" to="B1B0" /><trip id="240" depart="800.00" from="A2A1" to="B1B0" /><trip id="241" depart="803.33" from="B1B0" to="A2B2" /><trip id="242" depart="806.67" from="C1C2" to="B0B1" /><trip id="243" depart="810.00" from="C2B2" to="C1C2" /><trip id="244" depart="813.33" from="C1C0" to="A1A0" /><trip id="245" depart="816.67" from="C1B1" to="C1C0" /><trip id="246" depart="820.00" from="A2A1" to="C0B0" /><trip id="247" depart="823.33" from="C2C1" to="B0A0" /><trip id="248" depart="826.67" from="A2A1" to="B2A2" /><trip id="249" depart="830.00" from="B1B2" to="B0B1" /><trip id="250" depart="833.33" from="C1C0" to="C2B2" /><trip id="251" depart="836.67" from="C0B0" to="B0A0" /><trip id="252" depart="840.00" from="C1C2" to="B1A1" /><trip id="253" depart="843.33" from="A0B0" to="B0A0" /><trip id="254" depart="846.67" from="A0B0" to="B1A1" /><trip id="255" depart="850.00" from="B1B2" to="B0B1" /><trip id="256" depart="853.33" from="A1A0" to="A2B2" /><trip id="257" depart="856.67" from="C0C1" to="C2B2" /><trip id="258" depart="860.00" from="B1A1" to="A2B2" /><trip id="259" depart="863.33" from="C1C0" to="B2B1" /><trip id="260" depart="866.67" from="B1B2" to="C1C0" /><trip id="261" depart="870.00" from="B2A2" to="A1B1" /><trip id="262" depart="873.33" from="B0B1" to="A1B1" /><trip id="263" depart="876.67" from="B0A0" to="C2C1" /><trip id="264" depart="880.00" from="C0B0" to="C0B0" /><trip id="265" depart="883.33" from="B0B1" to="C2C1" /><trip id="266" depart="886.67" from="C0C1" to="B1C1" /><trip id="267" depart="890.00" from="C0C1" to="B1B2" /><trip id="268" depart="893.33" from="B1B0" to="B0A0" /><trip id="269" depart="896.67" from="A1B1" to="B2C2" /><trip id="270" depart="900.00" from="B2B1" to="A1A0" /><trip id="271" depart="903.33" from="A0B0" to="A1A2" /><trip id="272" depart="906.67" from="A1B1" to="C1C0" /><trip id="273" depart="910.00" from="A2A1" to="C1C2" /><trip id="274" depart="913.33" from="B1C1" to="C1B1" /><trip id="275" depart="916.67" from="A1A0" to="B1B2" /><trip id="276" depart="920.00" from="B1B2" to="C1B1" /><trip id="277" depart="923.33" from="B2A2" to="B2C2" /><trip id="278" depart="926.67" from="B0B1" to="C0B0" /><trip id="279" depart="930.00" from="A0A1" to="C1C2" /><trip id="280" depart="933.33" from="C2C1" to="A1A2" /><trip id="281" depart="936.67" from="C1C2" to="C0B0" /><trip id="282" depart="940.00" from="B0B1" to="C1C0" /><trip id="283" depart="943.33" from="B1A1" to="A1A2" /><trip id="284" depart="946.67" from="B0C0" to="B1C1" /><trip id="285" depart="950.00" from="A2A1" to="B2A2" /><trip id="286" depart="953.33" from="A0A1" to="C2C1" /><trip id="287" depart="956.67" from="C2C1" to="B0B1" /><trip id="288" depart="960.00" from="B2C2" to="A2A1" /><trip id="289" depart="963.33" from="B2C2" to="A1A2" /><trip id="290" depart="966.67" from="C1C0" to="B0C0" /><trip id="291" depart="970.00" from="C1C0" to="B2C2" /><trip id="292" depart="973.33" from="C1B1" to="A2B2" /><trip id="293" depart="976.67" from="A1B1" to="B1B0" /><trip id="294" depart="980.00" from="A2A1" to="C0B0" /><trip id="295" depart="983.33" from="B2C2" to="A0A1" /><trip id="296" depart="986.67" from="C1B1" to="B1A1" /><trip id="297" depart="990.00" from="B2B1" to="A0A1" /><trip id="298" depart="993.33" from="A1A2" to="B1B0" /><trip id="299" depart="996.67" from="B0C0" to="B0A0" /></routes>