<?xml version="1.0" encoding="UTF-8"?>
<routes>
  <vType id="car" accel="2.6" decel="4.5" sigma="0.5" length="5" maxSpeed="50"/>
  <trip id="veh_0" depart="57.55" from="gneE0" to="gneE9" type="car"/>
  <trip id="veh_1" depart="22.04" from="gneE4" to="gneE3" type="car"/>
  <trip id="veh_2" depart="60.90" from="gneE17" to="gneE2" type="car"/>
  <trip id="veh_3" depart="53.14" from="gneE1" to="gneE0" type="car"/>
  <trip id="veh_4" depart="8.43" from="gneE7" to="gneE17" type="car"/>
  <trip id="veh_5" depart="54.18" from="gneE17" to="gneE6" type="car"/>
  <trip id="veh_6" depart="64.44" from="gneE17" to="gneE13" type="car"/>
  <trip id="veh_7" depart="19.84" from="gneE8" to="gneE0" type="car"/>
  <trip id="veh_8" depart="68.29" from="gneE5" to="gneE14" type="car"/>
  <trip id="veh_9" depart="30.62" from="gneE4" to="gneE7" type="car"/>
  <trip id="veh_10" depart="86.15" from="gneE10" to="gneE3" type="car"/>
  <trip id="veh_11" depart="8.35" from="gneE3" to="gneE12" type="car"/>
  <trip id="veh_12" depart="76.27" from="gneE8" to="gneE1" type="car"/>
  <trip id="veh_13" depart="65.68" from="gneE17" to="gneE3" type="car"/>
  <trip id="veh_14" depart="87.58" from="gneE12" to="gneE2" type="car"/>
  <trip id="veh_15" depart="49.68" from="gneE11" to="gneE6" type="car"/>
  <trip id="veh_16" depart="63.41" from="gneE1" to="gneE8" type="car"/>
  <trip id="veh_17" depart="69.58" from="gneE2" to="gneE8" type="car"/>
  <trip id="veh_18" depart="77.98" from="gneE12" to="gneE8" type="car"/>
  <trip id="veh_19" depart="40.81" from="gneE11" to="gneE5" type="car"/>
  <trip id="veh_20" depart="33.32" from="gneE6" to="gneE9" type="car"/>
  <trip id="veh_21" depart="63.16" from="gneE2" to="gneE6" type="car"/>
  <trip id="veh_22" depart="48.07" from="gneE7" to="gneE5" type="car"/>
  <trip id="veh_23" depart="41.60" from="gneE8" to="gneE7" type="car"/>
  <trip id="veh_24" depart="61.62" from="gneE1" to="gneE8" type="car"/>
  <trip id="veh_25" depart="73.96" from="gneE10" to="gneE13" type="car"/>
  <trip id="veh_26" depart="24.10" from="gneE6" to="gneE11" type="car"/>
  <trip id="veh_27" depart="19.14" from="gneE15" to="gneE12" type="car"/>
  <trip id="veh_28" depart="79.62" from="gneE14" to="gneE4" type="car"/>
  <trip id="veh_29" depart="23.84" from="gneE7" to="gneE9" type="car"/>
  <trip id="veh_30" depart="67.23" from="gneE13" to="gneE12" type="car"/>
  <trip id="veh_31" depart="32.58" from="gneE4" to="gneE17" type="car"/>
  <trip id="veh_32" depart="44.42" from="gneE1" to="gneE4" type="car"/>
  <trip id="veh_33" depart="13.76" from="gneE5" to="gneE14" type="car"/>
  <trip id="veh_34" depart="53.68" from="gneE12" to="gneE13" type="car"/>
  <trip id="veh_35" depart="53.63" from="gneE14" to="gneE17" type="car"/>
  <trip id="veh_36" depart="22.63" from="gneE17" to="gneE0" type="car"/>
  <trip id="veh_37" depart="61.23" from="gneE3" to="gneE9" type="car"/>
  <trip id="veh_38" depart="69.17" from="gneE10" to="gneE3" type="car"/>
  <trip id="veh_39" depart="26.42" from="gneE5" to="gneE15" type="car"/>
  <trip id="veh_40" depart="0.29" from="gneE8" to="gneE17" type="car"/>
  <trip id="veh_41" depart="68.58" from="gneE16" to="gneE3" type="car"/>
  <trip id="veh_42" depart="78.35" from="gneE9" to="gneE17" type="car"/>
  <trip id="veh_43" depart="54.81" from="gneE4" to="gneE12" type="car"/>
  <trip id="veh_44" depart="68.63" from="gneE17" to="gneE16" type="car"/>
  <trip id="veh_45" depart="82.66" from="gneE10" to="gneE16" type="car"/>
  <trip id="veh_46" depart="1.75" from="gneE11" to="gneE9" type="car"/>
  <trip id="veh_47" depart="21.55" from="gneE7" to="gneE2" type="car"/>
  <trip id="veh_48" depart="7.71" from="gneE15" to="gneE2" type="car"/>
  <trip id="veh_49" depart="88.02" from="gneE17" to="gneE4" type="car"/>
  <trip id="veh_50" depart="11.56" from="gneE15" to="gneE5" type="car"/>
  <trip id="veh_51" depart="23.86" from="gneE13" to="gneE6" type="car"/>
  <trip id="veh_52" depart="83.60" from="gneE6" to="gneE10" type="car"/>
  <trip id="veh_53" depart="35.91" from="gneE11" to="gneE15" type="car"/>
  <trip id="veh_54" depart="80.97" from="gneE14" to="gneE3" type="car"/>
  <trip id="veh_55" depart="22.31" from="gneE2" to="gneE11" type="car"/>
  <trip id="veh_56" depart="1.89" from="gneE17" to="gneE7" type="car"/>
  <trip id="veh_57" depart="52.96" from="gneE0" to="gneE3" type="car"/>
  <trip id="veh_58" depart="63.71" from="gneE1" to="gneE8" type="car"/>
  <trip id="veh_59" depart="6.07" from="gneE1" to="gneE11" type="car"/>
  <trip id="veh_60" depart="6.38" from="gneE7" to="gneE9" type="car"/>
  <trip id="veh_61" depart="60.21" from="gneE6" to="gneE4" type="car"/>
  <trip id="veh_62" depart="65.10" from="gneE15" to="gneE7" type="car"/>
  <trip id="veh_63" depart="70.62" from="gneE13" to="gneE6" type="car"/>
  <trip id="veh_64" depart="8.49" from="gneE13" to="gneE11" type="car"/>
  <trip id="veh_65" depart="38.12" from="gneE14" to="gneE1" type="car"/>
  <trip id="veh_66" depart="60.60" from="gneE3" to="gneE1" type="car"/>
  <trip id="veh_67" depart="36.24" from="gneE10" to="gneE3" type="car"/>
  <trip id="veh_68" depart="22.38" from="gneE6" to="gneE15" type="car"/>
  <trip id="veh_69" depart="12.62" from="gneE5" to="gneE9" type="car"/>
  <trip id="veh_70" depart="41.64" from="gneE2" to="gneE15" type="car"/>
  <trip id="veh_71" depart="72.72" from="gneE17" to="gneE3" type="car"/>
  <trip id="veh_72" depart="4.55" from="gneE17" to="gneE0" type="car"/>
  <trip id="veh_73" depart="87.21" from="gneE7" to="gneE5" type="car"/>
  <trip id="veh_74" depart="36.58" from="gneE15" to="gneE6" type="car"/>
  <trip id="veh_75" depart="77.82" from="gneE1" to="gneE6" type="car"/>
  <trip id="veh_76" depart="34.11" from="gneE12" to="gneE8" type="car"/>
  <trip id="veh_77" depart="83.39" from="gneE14" to="gneE9" type="car"/>
  <trip id="veh_78" depart="38.07" from="gneE17" to="gneE15" type="car"/>
  <trip id="veh_79" depart="13.93" from="gneE9" to="gneE6" type="car"/>
  <trip id="veh_80" depart="87.18" from="gneE17" to="gneE1" type="car"/>
  <trip id="veh_81" depart="67.32" from="gneE1" to="gneE2" type="car"/>
  <trip id="veh_82" depart="52.58" from="gneE16" to="gneE17" type="car"/>
  <trip id="veh_83" depart="14.17" from="gneE16" to="gneE2" type="car"/>
  <trip id="veh_84" depart="76.62" from="gneE2" to="gneE3" type="car"/>
  <trip id="veh_85" depart="60.77" from="gneE7" to="gneE13" type="car"/>
  <trip id="veh_86" depart="10.79" from="gneE7" to="gneE1" type="car"/>
  <trip id="veh_87" depart="55.74" from="gneE13" to="gneE17" type="car"/>
  <trip id="veh_88" depart="28.47" from="gneE8" to="gneE6" type="car"/>
  <trip id="veh_89" depart="60.28" from="gneE10" to="gneE7" type="car"/>
  <trip id="veh_90" depart="23.91" from="gneE4" to="gneE10" type="car"/>
  <trip id="veh_91" depart="41.15" from="gneE2" to="gneE0" type="car"/>
  <trip id="veh_92" depart="41.25" from="gneE3" to="gneE2" type="car"/>
  <trip id="veh_93" depart="48.39" from="gneE16" to="gneE8" type="car"/>
  <trip id="veh_94" depart="11.92" from="gneE11" to="gneE2" type="car"/>
  <trip id="veh_95" depart="79.13" from="gneE11" to="gneE9" type="car"/>
  <trip id="veh_96" depart="14.20" from="gneE17" to="gneE9" type="car"/>
  <trip id="veh_97" depart="55.05" from="gneE16" to="gneE0" type="car"/>
  <trip id="veh_98" depart="60.11" from="gneE17" to="gneE9" type="car"/>
  <trip id="veh_99" depart="83.86" from="gneE3" to="gneE5" type="car"/>
  <trip id="veh_100" depart="23.80" from="gneE3" to="gneE5" type="car"/>
  <trip id="veh_101" depart="24.51" from="gneE6" to="gneE11" type="car"/>
  <trip id="veh_102" depart="18.32" from="gneE8" to="gneE17" type="car"/>
  <trip id="veh_103" depart="43.97" from="gneE1" to="gneE3" type="car"/>
  <trip id="veh_104" depart="57.09" from="gneE8" to="gneE1" type="car"/>
  <trip id="veh_105" depart="0.32" from="gneE4" to="gneE9" type="car"/>
  <trip id="veh_106" depart="14.54" from="gneE14" to="gneE13" type="car"/>
  <trip id="veh_107" depart="50.48" from="gneE3" to="gneE2" type="car"/>
  <trip id="veh_108" depart="85.05" from="gneE4" to="gneE1" type="car"/>
  <trip id="veh_109" depart="75.11" from="gneE17" to="gneE4" type="car"/>
  <trip id="veh_110" depart="38.68" from="gneE1" to="gneE10" type="car"/>
  <trip id="veh_111" depart="32.82" from="gneE1" to="gneE12" type="car"/>
  <trip id="veh_112" depart="18.91" from="gneE7" to="gneE3" type="car"/>
  <trip id="veh_113" depart="31.83" from="gneE17" to="gneE13" type="car"/>
  <trip id="veh_114" depart="87.65" from="gneE4" to="gneE8" type="car"/>
  <trip id="veh_115" depart="77.81" from="gneE5" to="gneE14" type="car"/>
  <trip id="veh_116" depart="2.23" from="gneE10" to="gneE14" type="car"/>
  <trip id="veh_117" depart="72.20" from="gneE7" to="gneE9" type="car"/>
  <trip id="veh_118" depart="14.33" from="gneE3" to="gneE13" type="car"/>
  <trip id="veh_119" depart="78.50" from="gneE15" to="gneE7" type="car"/>
  <trip id="veh_120" depart="17.96" from="gneE14" to="gneE11" type="car"/>
  <trip id="veh_121" depart="27.47" from="gneE7" to="gneE8" type="car"/>
  <trip id="veh_122" depart="2.13" from="gneE6" to="gneE13" type="car"/>
  <trip id="veh_123" depart="29.54" from="gneE2" to="gneE9" type="car"/>
  <trip id="veh_124" depart="31.60" from="gneE16" to="gneE12" type="car"/>
  <trip id="veh_125" depart="61.16" from="gneE17" to="gneE10" type="car"/>
  <trip id="veh_126" depart="84.53" from="gneE3" to="gneE9" type="car"/>
  <trip id="veh_127" depart="16.07" from="gneE8" to="gneE1" type="car"/>
  <trip id="veh_128" depart="9.76" from="gneE13" to="gneE11" type="car"/>
  <trip id="veh_129" depart="65.57" from="gneE10" to="gneE14" type="car"/>
  <trip id="veh_130" depart="54.56" from="gneE16" to="gneE3" type="car"/>
  <trip id="veh_131" depart="34.67" from="gneE6" to="gneE9" type="car"/>
  <trip id="veh_132" depart="3.99" from="gneE13" to="gneE0" type="car"/>
  <trip id="veh_133" depart="46.79" from="gneE17" to="gneE6" type="car"/>
  <trip id="veh_134" depart="32.78" from="gneE2" to="gneE11" type="car"/>
  <trip id="veh_135" depart="56.08" from="gneE3" to="gneE10" type="car"/>
  <trip id="veh_136" depart="45.64" from="gneE13" to="gneE10" type="car"/>
  <trip id="veh_137" depart="36.22" from="gneE9" to="gneE4" type="car"/>
  <trip id="veh_138" depart="17.27" from="gneE12" to="gneE5" type="car"/>
  <trip id="veh_139" depart="55.40" from="gneE9" to="gneE13" type="car"/>
  <trip id="veh_140" depart="49.31" from="gneE0" to="gneE10" type="car"/>
  <trip id="veh_141" depart="25.82" from="gneE13" to="gneE10" type="car"/>
  <trip id="veh_142" depart="41.85" from="gneE14" to="gneE6" type="car"/>
  <trip id="veh_143" depart="46.01" from="gneE5" to="gneE2" type="car"/>
  <trip id="veh_144" depart="25.54" from="gneE10" to="gneE2" type="car"/>
  <trip id="veh_145" depart="73.66" from="gneE7" to="gneE10" type="car"/>
  <trip id="veh_146" depart="20.22" from="gneE6" to="gneE4" type="car"/>
  <trip id="veh_147" depart="2.20" from="gneE7" to="gneE16" type="car"/>
  <trip id="veh_148" depart="55.01" from="gneE2" to="gneE15" type="car"/>
  <trip id="veh_149" depart="37.30" from="gneE6" to="gneE13" type="car"/>
  <trip id="veh_150" depart="44.49" from="gneE7" to="gneE4" type="car"/>
  <trip id="veh_151" depart="59.05" from="gneE0" to="gneE4" type="car"/>
  <trip id="veh_152" depart="70.06" from="gneE7" to="gneE5" type="car"/>
  <trip id="veh_153" depart="72.37" from="gneE16" to="gneE14" type="car"/>
  <trip id="veh_154" depart="4.52" from="gneE7" to="gneE3" type="car"/>
  <trip id="veh_155" depart="41.08" from="gneE14" to="gneE17" type="car"/>
  <trip id="veh_156" depart="88.91" from="gneE10" to="gneE15" type="car"/>
  <trip id="veh_157" depart="55.14" from="gneE16" to="gneE13" type="car"/>
  <trip id="veh_158" depart="74.75" from="gneE17" to="gneE14" type="car"/>
  <trip id="veh_159" depart="80.75" from="gneE15" to="gneE14" type="car"/>
  <trip id="veh_160" depart="23.33" from="gneE7" to="gneE9" type="car"/>
  <trip id="veh_161" depart="68.92" from="gneE16" to="gneE15" type="car"/>
  <trip id="veh_162" depart="56.41" from="gneE8" to="gneE15" type="car"/>
  <trip id="veh_163" depart="6.97" from="gneE9" to="gneE7" type="car"/>
  <trip id="veh_164" depart="24.45" from="gneE10" to="gneE2" type="car"/>
  <trip id="veh_165" depart="12.45" from="gneE7" to="gneE13" type="car"/>
  <trip id="veh_166" depart="62.46" from="gneE6" to="gneE2" type="car"/>
  <trip id="veh_167" depart="37.34" from="gneE10" to="gneE15" type="car"/>
  <trip id="veh_168" depart="37.42" from="gneE6" to="gneE14" type="car"/>
  <trip id="veh_169" depart="35.05" from="gneE0" to="gneE13" type="car"/>
  <trip id="veh_170" depart="42.93" from="gneE11" to="gneE9" type="car"/>
  <trip id="veh_171" depart="67.81" from="gneE13" to="gneE7" type="car"/>
  <trip id="veh_172" depart="43.94" from="gneE8" to="gneE14" type="car"/>
  <trip id="veh_173" depart="43.71" from="gneE12" to="gneE10" type="car"/>
  <trip id="veh_174" depart="60.20" from="gneE12" to="gneE5" type="car"/>
  <trip id="veh_175" depart="75.65" from="gneE4" to="gneE0" type="car"/>
  <trip id="veh_176" depart="81.62" from="gneE0" to="gneE3" type="car"/>
  <trip id="veh_177" depart="57.85" from="gneE4" to="gneE15" type="car"/>
  <trip id="veh_178" depart="16.36" from="gneE8" to="gneE13" type="car"/>
  <trip id="veh_179" depart="29.46" from="gneE14" to="gneE10" type="car"/>
  <trip id="veh_180" depart="30.38" from="gneE12" to="gneE8" type="car"/>
  <trip id="veh_181" depart="67.68" from="gneE13" to="gneE8" type="car"/>
  <trip id="veh_182" depart="75.14" from="gneE15" to="gneE0" type="car"/>
  <trip id="veh_183" depart="67.41" from="gneE1" to="gneE12" type="car"/>
  <trip id="veh_184" depart="20.18" from="gneE2" to="gneE1" type="car"/>
  <trip id="veh_185" depart="67.88" from="gneE7" to="gneE6" type="car"/>
  <trip id="veh_186" depart="75.53" from="gneE4" to="gneE8" type="car"/>
  <trip id="veh_187" depart="11.36" from="gneE3" to="gneE7" type="car"/>
  <trip id="veh_188" depart="41.85" from="gneE8" to="gneE12" type="car"/>
  <trip id="veh_189" depart="15.10" from="gneE3" to="gneE6" type="car"/>
  <trip id="veh_190" depart="86.82" from="gneE3" to="gneE0" type="car"/>
  <trip id="veh_191" depart="83.60" from="gneE12" to="gneE13" type="car"/>
  <trip id="veh_192" depart="84.73" from="gneE6" to="gneE2" type="car"/>
  <trip id="veh_193" depart="53.29" from="gneE7" to="gneE3" type="car"/>
  <trip id="veh_194" depart="62.75" from="gneE9" to="gneE3" type="car"/>
  <trip id="veh_195" depart="71.66" from="gneE1" to="gneE12" type="car"/>
  <trip id="veh_196" depart="47.95" from="gneE11" to="gneE2" type="car"/>
  <trip id="veh_197" depart="45.54" from="gneE10" to="gneE0" type="car"/>
  <trip id="veh_198" depart="76.46" from="gneE15" to="gneE3" type="car"/>
  <trip id="veh_199" depart="39.02" from="gneE11" to="gneE15" type="car"/>
  <trip id="veh_200" depart="63.66" from="gneE13" to="gneE5" type="car"/>
  <trip id="veh_201" depart="66.04" from="gneE8" to="gneE16" type="car"/>
  <trip id="veh_202" depart="41.84" from="gneE8" to="gneE11" type="car"/>
  <trip id="veh_203" depart="76.65" from="gneE2" to="gneE9" type="car"/>
  <trip id="veh_204" depart="79.35" from="gneE7" to="gneE15" type="car"/>
  <trip id="veh_205" depart="51.29" from="gneE12" to="gneE10" type="car"/>
  <trip id="veh_206" depart="2.58" from="gneE10" to="gneE5" type="car"/>
  <trip id="veh_207" depart="43.88" from="gneE11" to="gneE8" type="car"/>
  <trip id="veh_208" depart="30.63" from="gneE8" to="gneE0" type="car"/>
  <trip id="veh_209" depart="46.50" from="gneE6" to="gneE2" type="car"/>
  <trip id="veh_210" depart="21.72" from="gneE13" to="gneE16" type="car"/>
  <trip id="veh_211" depart="49.97" from="gneE7" to="gneE16" type="car"/>
  <trip id="veh_212" depart="58.13" from="gneE15" to="gneE14" type="car"/>
  <trip id="veh_213" depart="71.36" from="gneE2" to="gneE10" type="car"/>
  <trip id="veh_214" depart="19.94" from="gneE7" to="gneE10" type="car"/>
  <trip id="veh_215" depart="59.76" from="gneE11" to="gneE16" type="car"/>
  <trip id="veh_216" depart="49.81" from="gneE11" to="gneE14" type="car"/>
  <trip id="veh_217" depart="89.70" from="gneE17" to="gneE10" type="car"/>
  <trip id="veh_218" depart="31.66" from="gneE14" to="gneE8" type="car"/>
  <trip id="veh_219" depart="27.60" from="gneE7" to="gneE3" type="car"/>
  <trip id="veh_220" depart="64.92" from="gneE10" to="gneE3" type="car"/>
  <trip id="veh_221" depart="66.86" from="gneE5" to="gneE7" type="car"/>
  <trip id="veh_222" depart="19.47" from="gneE15" to="gneE8" type="car"/>
  <trip id="veh_223" depart="65.21" from="gneE16" to="gneE9" type="car"/>
  <trip id="veh_224" depart="88.25" from="gneE6" to="gneE10" type="car"/>
  <trip id="veh_225" depart="20.47" from="gneE5" to="gneE10" type="car"/>
  <trip id="veh_226" depart="1.27" from="gneE17" to="gneE4" type="car"/>
  <trip id="veh_227" depart="24.69" from="gneE1" to="gneE10" type="car"/>
  <trip id="veh_228" depart="62.77" from="gneE4" to="gneE16" type="car"/>
  <trip id="veh_229" depart="9.23" from="gneE0" to="gneE10" type="car"/>
  <trip id="veh_230" depart="42.25" from="gneE14" to="gneE10" type="car"/>
  <trip id="veh_231" depart="16.59" from="gneE1" to="gneE9" type="car"/>
  <trip id="veh_232" depart="84.70" from="gneE15" to="gneE3" type="car"/>
  <trip id="veh_233" depart="73.99" from="gneE12" to="gneE16" type="car"/>
  <trip id="veh_234" depart="6.67" from="gneE1" to="gneE5" type="car"/>
  <trip id="veh_235" depart="13.43" from="gneE9" to="gneE2" type="car"/>
  <trip id="veh_236" depart="89.45" from="gneE3" to="gneE14" type="car"/>
  <trip id="veh_237" depart="54.57" from="gneE7" to="gneE17" type="car"/>
  <trip id="veh_238" depart="34.23" from="gneE14" to="gneE9" type="car"/>
  <trip id="veh_239" depart="77.41" from="gneE13" to="gneE9" type="car"/>
  <trip id="veh_240" depart="51.18" from="gneE1" to="gneE4" type="car"/>
  <trip id="veh_241" depart="85.28" from="gneE6" to="gneE7" type="car"/>
  <trip id="veh_242" depart="23.82" from="gneE2" to="gneE6" type="car"/>
  <trip id="veh_243" depart="21.59" from="gneE17" to="gneE2" type="car"/>
  <trip id="veh_244" depart="14.09" from="gneE13" to="gneE15" type="car"/>
  <trip id="veh_245" depart="62.04" from="gneE15" to="gneE9" type="car"/>
  <trip id="veh_246" depart="2.94" from="gneE9" to="gneE10" type="car"/>
  <trip id="veh_247" depart="63.27" from="gneE14" to="gneE2" type="car"/>
  <trip id="veh_248" depart="61.86" from="gneE8" to="gneE6" type="car"/>
  <trip id="veh_249" depart="38.26" from="gneE17" to="gneE7" type="car"/>
  <trip id="veh_250" depart="58.29" from="gneE8" to="gneE4" type="car"/>
  <trip id="veh_251" depart="6.43" from="gneE5" to="gneE10" type="car"/>
  <trip id="veh_252" depart="53.55" from="gneE9" to="gneE15" type="car"/>
  <trip id="veh_253" depart="11.19" from="gneE9" to="gneE13" type="car"/>
  <trip id="veh_254" depart="84.84" from="gneE16" to="gneE15" type="car"/>
  <trip id="veh_255" depart="39.40" from="gneE1" to="gneE14" type="car"/>
  <trip id="veh_256" depart="66.11" from="gneE8" to="gneE0" type="car"/>
  <trip id="veh_257" depart="8.22" from="gneE0" to="gneE9" type="car"/>
  <trip id="veh_258" depart="51.86" from="gneE5" to="gneE16" type="car"/>
  <trip id="veh_259" depart="46.71" from="gneE14" to="gneE8" type="car"/>
  <trip id="veh_260" depart="16.33" from="gneE13" to="gneE16" type="car"/>
  <trip id="veh_261" depart="87.21" from="gneE15" to="gneE11" type="car"/>
  <trip id="veh_262" depart="36.75" from="gneE10" to="gneE3" type="car"/>
  <trip id="veh_263" depart="77.20" from="gneE10" to="gneE14" type="car"/>
  <trip id="veh_264" depart="62.43" from="gneE9" to="gneE13" type="car"/>
  <trip id="veh_265" depart="73.22" from="gneE17" to="gneE1" type="car"/>
  <trip id="veh_266" depart="40.93" from="gneE10" to="gneE8" type="car"/>
  <trip id="veh_267" depart="29.09" from="gneE12" to="gneE17" type="car"/>
  <trip id="veh_268" depart="74.24" from="gneE0" to="gneE15" type="car"/>
  <trip id="veh_269" depart="37.19" from="gneE6" to="gneE17" type="car"/>
  <trip id="veh_270" depart="32.56" from="gneE15" to="gneE14" type="car"/>
  <trip id="veh_271" depart="68.40" from="gneE6" to="gneE9" type="car"/>
  <trip id="veh_272" depart="49.43" from="gneE9" to="gneE15" type="car"/>
  <trip id="veh_273" depart="79.28" from="gneE15" to="gneE3" type="car"/>
  <trip id="veh_274" depart="2.60" from="gneE7" to="gneE5" type="car"/>
  <trip id="veh_275" depart="27.97" from="gneE0" to="gneE14" type="car"/>
  <trip id="veh_276" depart="8.39" from="gneE3" to="gneE15" type="car"/>
  <trip id="veh_277" depart="85.24" from="gneE4" to="gneE16" type="car"/>
  <trip id="veh_278" depart="83.94" from="gneE9" to="gneE17" type="car"/>
  <trip id="veh_279" depart="63.49" from="gneE13" to="gneE16" type="car"/>
  <trip id="veh_280" depart="88.22" from="gneE7" to="gneE15" type="car"/>
  <trip id="veh_281" depart="49.61" from="gneE12" to="gneE6" type="car"/>
  <trip id="veh_282" depart="82.97" from="gneE16" to="gneE4" type="car"/>
  <trip id="veh_283" depart="77.76" from="gneE8" to="gneE14" type="car"/>
  <trip id="veh_284" depart="30.59" from="gneE16" to="gneE8" type="car"/>
  <trip id="veh_285" depart="73.85" from="gneE9" to="gneE10" type="car"/>
  <trip id="veh_286" depart="75.37" from="gneE15" to="gneE4" type="car"/>
  <trip id="veh_287" depart="40.19" from="gneE15" to="gneE11" type="car"/>
  <trip id="veh_288" depart="29.92" from="gneE17" to="gneE12" type="car"/>
  <trip id="veh_289" depart="40.98" from="gneE10" to="gneE6" type="car"/>
  <trip id="veh_290" depart="88.27" from="gneE7" to="gneE13" type="car"/>
  <trip id="veh_291" depart="21.02" from="gneE13" to="gneE1" type="car"/>
  <trip id="veh_292" depart="28.64" from="gneE15" to="gneE12" type="car"/>
  <trip id="veh_293" depart="34.75" from="gneE4" to="gneE16" type="car"/>
  <trip id="veh_294" depart="86.83" from="gneE4" to="gneE17" type="car"/>
  <trip id="veh_295" depart="86.88" from="gneE10" to="gneE3" type="car"/>
  <trip id="veh_296" depart="78.68" from="gneE14" to="gneE3" type="car"/>
  <trip id="veh_297" depart="47.34" from="gneE14" to="gneE0" type="car"/>
  <trip id="veh_298" depart="65.02" from="gneE13" to="gneE4" type="car"/>
  <trip id="veh_299" depart="6.73" from="gneE8" to="gneE11" type="car"/>
  <trip id="veh_300" depart="56.09" from="gneE12" to="gneE2" type="car"/>
  <trip id="veh_301" depart="76.66" from="gneE17" to="gneE12" type="car"/>
  <trip id="veh_302" depart="85.87" from="gneE15" to="gneE1" type="car"/>
  <trip id="veh_303" depart="55.57" from="gneE7" to="gneE10" type="car"/>
  <trip id="veh_304" depart="89.77" from="gneE2" to="gneE14" type="car"/>
  <trip id="veh_305" depart="88.05" from="gneE3" to="gneE15" type="car"/>
  <trip id="veh_306" depart="14.97" from="gneE9" to="gneE0" type="car"/>
  <trip id="veh_307" depart="4.14" from="gneE1" to="gneE10" type="car"/>
  <trip id="veh_308" depart="32.26" from="gneE13" to="gneE4" type="car"/>
  <trip id="veh_309" depart="21.98" from="gneE13" to="gneE5" type="car"/>
  <trip id="veh_310" depart="15.30" from="gneE2" to="gneE13" type="car"/>
  <trip id="veh_311" depart="55.77" from="gneE7" to="gneE16" type="car"/>
  <trip id="veh_312" depart="82.15" from="gneE4" to="gneE8" type="car"/>
  <trip id="veh_313" depart="41.50" from="gneE8" to="gneE15" type="car"/>
  <trip id="veh_314" depart="22.98" from="gneE0" to="gneE15" type="car"/>
  <trip id="veh_315" depart="81.11" from="gneE17" to="gneE5" type="car"/>
  <trip id="veh_316" depart="6.65" from="gneE11" to="gneE9" type="car"/>
  <trip id="veh_317" depart="57.50" from="gneE13" to="gneE8" type="car"/>
  <trip id="veh_318" depart="41.12" from="gneE9" to="gneE6" type="car"/>
  <trip id="veh_319" depart="89.94" from="gneE15" to="gneE3" type="car"/>
  <trip id="veh_320" depart="21.35" from="gneE11" to="gneE9" type="car"/>
  <trip id="veh_321" depart="89.34" from="gneE9" to="gneE0" type="car"/>
  <trip id="veh_322" depart="88.02" from="gneE12" to="gneE8" type="car"/>
  <trip id="veh_323" depart="0.73" from="gneE1" to="gneE16" type="car"/>
  <trip id="veh_324" depart="74.96" from="gneE9" to="gneE7" type="car"/>
  <trip id="veh_325" depart="54.64" from="gneE11" to="gneE7" type="car"/>
  <trip id="veh_326" depart="57.30" from="gneE8" to="gneE4" type="car"/>
  <trip id="veh_327" depart="56.54" from="gneE1" to="gneE10" type="car"/>
  <trip id="veh_328" depart="70.97" from="gneE1" to="gneE12" type="car"/>
  <trip id="veh_329" depart="65.91" from="gneE2" to="gneE10" type="car"/>
  <trip id="veh_330" depart="29.40" from="gneE13" to="gneE5" type="car"/>
  <trip id="veh_331" depart="18.07" from="gneE17" to="gneE11" type="car"/>
  <trip id="veh_332" depart="47.78" from="gneE8" to="gneE5" type="car"/>
  <trip id="veh_333" depart="23.13" from="gneE15" to="gneE9" type="car"/>
  <trip id="veh_334" depart="67.19" from="gneE10" to="gneE3" type="car"/>
  <trip id="veh_335" depart="42.15" from="gneE2" to="gneE5" type="car"/>
  <trip id="veh_336" depart="67.87" from="gneE7" to="gneE13" type="car"/>
  <trip id="veh_337" depart="87.05" from="gneE17" to="gneE11" type="car"/>
  <trip id="veh_338" depart="8.13" from="gneE12" to="gneE0" type="car"/>
  <trip id="veh_339" depart="23.80" from="gneE3" to="gneE15" type="car"/>
  <trip id="veh_340" depart="33.17" from="gneE8" to="gneE13" type="car"/>
  <trip id="veh_341" depart="74.02" from="gneE11" to="gneE3" type="car"/>
  <trip id="veh_342" depart="60.74" from="gneE15" to="gneE0" type="car"/>
  <trip id="veh_343" depart="55.76" from="gneE17" to="gneE10" type="car"/>
  <trip id="veh_344" depart="82.37" from="gneE7" to="gneE2" type="car"/>
  <trip id="veh_345" depart="57.19" from="gneE14" to="gneE9" type="car"/>
  <trip id="veh_346" depart="58.43" from="gneE3" to="gneE5" type="car"/>
  <trip id="veh_347" depart="4.08" from="gneE1" to="gneE10" type="car"/>
  <trip id="veh_348" depart="89.63" from="gneE3" to="gneE4" type="car"/>
  <trip id="veh_349" depart="21.13" from="gneE17" to="gneE4" type="car"/>
  <trip id="veh_350" depart="34.98" from="gneE11" to="gneE14" type="car"/>
  <trip id="veh_351" depart="52.86" from="gneE4" to="gneE14" type="car"/>
  <trip id="veh_352" depart="58.94" from="gneE15" to="gneE13" type="car"/>
  <trip id="veh_353" depart="84.51" from="gneE8" to="gneE1" type="car"/>
  <trip id="veh_354" depart="62.13" from="gneE6" to="gneE15" type="car"/>
  <trip id="veh_355" depart="40.02" from="gneE7" to="gneE12" type="car"/>
  <trip id="veh_356" depart="8.94" from="gneE11" to="gneE12" type="car"/>
  <trip id="veh_357" depart="5.45" from="gneE8" to="gneE6" type="car"/>
  <trip id="veh_358" depart="87.14" from="gneE14" to="gneE2" type="car"/>
  <trip id="veh_359" depart="59.65" from="gneE0" to="gneE2" type="car"/>
  <trip id="veh_360" depart="70.81" from="gneE7" to="gneE4" type="car"/>
  <trip id="veh_361" depart="70.83" from="gneE6" to="gneE2" type="car"/>
  <trip id="veh_362" depart="74.68" from="gneE17" to="gneE6" type="car"/>
  <trip id="veh_363" depart="52.77" from="gneE7" to="gneE11" type="car"/>
  <trip id="veh_364" depart="69.69" from="gneE0" to="gneE9" type="car"/>
  <trip id="veh_365" depart="77.26" from="gneE4" to="gneE5" type="car"/>
  <trip id="veh_366" depart="48.62" from="gneE5" to="gneE3" type="car"/>
  <trip id="veh_367" depart="59.50" from="gneE0" to="gneE5" type="car"/>
  <trip id="veh_368" depart="1.34" from="gneE7" to="gneE11" type="car"/>
  <trip id="veh_369" depart="1.42" from="gneE8" to="gneE1" type="car"/>
  <trip id="veh_370" depart="11.41" from="gneE13" to="gneE17" type="car"/>
  <trip id="veh_371" depart="10.23" from="gneE2" to="gneE16" type="car"/>
  <trip id="veh_372" depart="40.34" from="gneE11" to="gneE17" type="car"/>
  <trip id="veh_373" depart="53.43" from="gneE14" to="gneE17" type="car"/>
  <trip id="veh_374" depart="19.94" from="gneE1" to="gneE17" type="car"/>
  <trip id="veh_375" depart="27.15" from="gneE0" to="gneE2" type="car"/>
  <trip id="veh_376" depart="89.87" from="gneE12" to="gneE14" type="car"/>
  <trip id="veh_377" depart="61.75" from="gneE15" to="gneE14" type="car"/>
  <trip id="veh_378" depart="6.61" from="gneE2" to="gneE11" type="car"/>
  <trip id="veh_379" depart="54.75" from="gneE2" to="gneE5" type="car"/>
  <trip id="veh_380" depart="24.75" from="gneE17" to="gneE10" type="car"/>
  <trip id="veh_381" depart="34.28" from="gneE16" to="gneE9" type="car"/>
  <trip id="veh_382" depart="40.83" from="gneE13" to="gneE3" type="car"/>
  <trip id="veh_383" depart="71.38" from="gneE3" to="gneE7" type="car"/>
  <trip id="veh_384" depart="38.71" from="gneE7" to="gneE14" type="car"/>
  <trip id="veh_385" depart="30.50" from="gneE14" to="gneE12" type="car"/>
  <trip id="veh_386" depart="37.44" from="gneE3" to="gneE11" type="car"/>
  <trip id="veh_387" depart="38.41" from="gneE8" to="gneE12" type="car"/>
  <trip id="veh_388" depart="85.82" from="gneE15" to="gneE2" type="car"/>
  <trip id="veh_389" depart="8.21" from="gneE2" to="gneE3" type="car"/>
  <trip id="veh_390" depart="38.87" from="gneE11" to="gneE4" type="car"/>
  <trip id="veh_391" depart="50.07" from="gneE17" to="gneE10" type="car"/>
  <trip id="veh_392" depart="60.30" from="gneE13" to="gneE11" type="car"/>
  <trip id="veh_393" depart="78.62" from="gneE13" to="gneE1" type="car"/>
  <trip id="veh_394" depart="87.16" from="gneE9" to="gneE12" type="car"/>
  <trip id="veh_395" depart="9.32" from="gneE16" to="gneE6" type="car"/>
  <trip id="veh_396" depart="13.93" from="gneE15" to="gneE7" type="car"/>
  <trip id="veh_397" depart="76.25" from="gneE11" to="gneE12" type="car"/>
  <trip id="veh_398" depart="10.34" from="gneE8" to="gneE7" type="car"/>
  <trip id="veh_399" depart="72.65" from="gneE17" to="gneE0" type="car"/>
  <trip id="veh_400" depart="54.81" from="gneE8" to="gneE0" type="car"/>
  <trip id="veh_401" depart="16.24" from="gneE9" to="gneE11" type="car"/>
  <trip id="veh_402" depart="31.59" from="gneE5" to="gneE4" type="car"/>
  <trip id="veh_403" depart="50.97" from="gneE12" to="gneE2" type="car"/>
  <trip id="veh_404" depart="12.77" from="gneE0" to="gneE3" type="car"/>
  <trip id="veh_405" depart="67.15" from="gneE6" to="gneE13" type="car"/>