<?xml version="1.0" encoding="UTF-8"?>
<routes>
  <vType id="car" accel="2.6" decel="4.5" sigma="0.5" length="5" maxSpeed="50"/>
  <trip id="veh_0" depart="57.55" from="gneE0" to="gneE9" type="car"/>
  <trip id="veh_1" depart="22.04" from="gneE4" to="gneE3" type="car"/>
  <trip id="veh_2" depart="60.90" from="gneE17" to="gneE2" type="car"/>
  <trip id="veh_3" depart="53.14" from="gneE1" to="gneE0" type="car"/>
  <trip id="veh_4" depart="8.43" from="gneE7" to="gneE17" type="car"/>
  <trip id="veh_5" depart="54.18" from="gneE17" to="gneE6" type="car"/>
  <trip id="veh_6" depart="64.44" from="gneE17" to="gneE13" type="car"/>
  <trip id="veh_7" depart="19.84" from="gneE8" to="gneE0" type="car"/>
  <trip id="veh_8" depart="68.29" from="gneE5" to="gneE14" type="car"/>
  <trip id="veh_9" depart="30.62" from="gneE4" to="gneE7" type="car"/>
  <trip id="veh_10" depart="86.15" from="gneE10" to="gneE3" type="car"/>
  <trip id="veh_11" depart="8.35" from="gneE3" to="gneE12" type="car"/>
  <trip id="veh_12" depart="76.27" from="gneE8" to="gneE1" type="car"/>
  <trip id="veh_13" depart="65.68" from="gneE17" to="gneE3" type="car"/>
  <trip id="veh_14" depart="87.58" from="gneE12" to="gneE2" type="car"/>
  <trip id="veh_15" depart="49.68" from="gneE11" to="gneE6" type="car"/>
  <trip id="veh_16" depart="63.41" from="gneE1" to="gneE8" type="car"/>
  <trip id="veh_17" depart="69.58" from="gneE2" to="gneE8" type="car"/>
  <trip id="veh_18" depart="77.98" from="gneE12" to="gneE8" type="car"/>
  <trip id="veh_19" depart="40.81" from="gneE11" to="gneE5" type="car"/>
  <trip id="veh_20" depart="33.32" from="gneE6" to="gneE9" type="car"/>
  <trip id="veh_21" depart="63.16" from="gneE2" to="gneE6" type="car"/>
  <trip id="veh_22" depart="48.07" from="gneE7" to="gneE5" type="car"/>
  <trip id="veh_23" depart="41.60" from="gneE8" to="gneE7" type="car"/>
  <trip id="veh_24" depart="61.62" from="gneE1" to="gneE8" type="car"/>
  <trip id="veh_25" depart="73.96" from="gneE10" to="gneE13" type="car"/>
  <trip id="veh_26" depart="24.10" from="gneE6" to="gneE11" type="car"/>
  <trip id="veh_27" depart="19.14" from="gneE15" to="gneE12" type="car"/>
  <trip id="veh_28" depart="79.62" from="gneE14" to="gneE4" type="car"/>
  <trip id="veh_29" depart="23.84" from="gneE7" to="gneE9" type="car"/>
  <trip id="veh_30" depart="67.23" from="gneE13" to="gneE12" type="car"/>
  <trip id="veh_31" depart="32.58" from="gneE4" to="gneE17" type="car"/>
  <trip id="veh_32" depart="44.42" from="gneE1" to="gneE4" type="car"/>
  <trip id="veh_33" depart="13.76" from="gneE5" to="gneE14" type="car"/>
  <trip id="veh_34" depart="53.68" from="gneE12" to="gneE13" type="car"/>
  <trip id="veh_35" depart="53.63" from="gneE14" to="gneE17" type="car"/>
  <trip id="veh_36" depart="22.63" from="gneE17" to="gneE0" type="car"/>
  <trip id="veh_37" depart="61.23" from="gneE3" to="gneE9" type="car"/>
  <trip id="veh_38" depart="69.17" from="gneE10" to="gneE3" type="car"/>
  <trip id="veh_39" depart="26.42" from="gneE5" to="gneE15" type="car"/>
  <trip id="veh_40" depart="0.29" from="gneE8" to="gneE17" type="car"/>
  <trip id="veh_41" depart="68.58" from="gneE16" to="gneE3" type="car"/>
  <trip id="veh_42" depart="78.35" from="gneE9" to="gneE17" type="car"/>
  <trip id="veh_43" depart="54.81" from="gneE4" to="gneE12" type="car"/>
  <trip id="veh_44" depart="68.63" from="gneE17" to="gneE16" type="car"/>
  <trip id="veh_45" depart="82.66" from="gneE10" to="gneE16" type="car"/>
  <trip id="veh_46" depart="1.75" from="gneE11" to="gneE9" type="car"/>
  <trip id="veh_47" depart="21.55" from="gneE7" to="gneE2" type="car"/>
  <trip id="veh_48" depart="7.71" from="gneE15" to="gneE2" type="car"/>
  <trip id="veh_49" depart="88.02" from="gneE17" to="gneE4" type="car"/>
  <trip id="veh_50" depart="11.56" from="gneE15" to="gneE5" type="car"/>
  <trip id="veh_51" depart="23.86" from="gneE13" to="gneE6" type="car"/>
  <trip id="veh_52" depart="83.60" from="gneE6" to="gneE10" type="car"/>
  <trip id="veh_53" depart="35.91" from="gneE11" to="gneE15" type="car"/>
  <trip id="veh_54" depart="80.97" from="gneE14" to="gneE3" type="car"/>
  <trip id="veh_55" depart="22.31" from="gneE2" to="gneE11" type="car"/>
  <trip id="veh_56" depart="1.89" from="gneE17" to="gneE7" type="car"/>
  <trip id="veh_57" depart="52.96" from="gneE0" to="gneE3" type="car"/>
  <trip id="veh_58" depart="63.71" from="gneE1" to="gneE8" type="car"/>
  <trip id="veh_59" depart="6.07" from="gneE1" to="gneE11" type="car"/>
  <trip id="veh_60" depart="6.38" from="gneE7" to="gneE9" type="car"/>
  <trip id="veh_61" depart="60.21" from="gneE6" to="gneE4" type="car"/>
  <trip id="veh_62" depart="65.10" from="gneE15" to="gneE7" type="car"/>
  <trip id="veh_63" depart="70.62" from="gneE13" to="gneE6" type="car"/>
  <trip id="veh_64" depart="8.49" from="gneE13" to="gneE11" type="car"/>
  <trip id="veh_65" depart="38.12" from="gneE14" to="gneE1" type="car"/>
  <trip id="veh_66" depart="60.60" from="gneE3" to="gneE1" type="car"/>
  <trip id="veh_67" depart="36.24" from="gneE10" to="gneE3" type="car"/>
  <trip id="veh_68" depart="22.38" from="gneE6" to="gneE15" type="car"/>
  <trip id="veh_69" depart="12.62" from="gneE5" to="gneE9" type="car"/>
  <trip id="veh_70" depart="41.64" from="gneE2" to="gneE15" type="car"/>
  <trip id="veh_71" depart="72.72" from="gneE17" to="gneE3" type="car"/>
  <trip id="veh_72" depart="4.55" from="gneE17" to="gneE0" type="car"/>
  <trip id="veh_73" depart="87.21" from="gneE7" to="gneE5" type="car"/>
  <trip id="veh_74" depart="36.58" from="gneE15" to="gneE6" type="car"/>
  <trip id="veh_75" depart="77.82" from="gneE1" to="gneE6" type="car"/>
  <trip id="veh_76" depart="34.11" from="gneE12" to="gneE8" type="car"/>
  <trip id="veh_77" depart="83.39" from="gneE14" to="gneE9" type="car"/>
  <trip id="veh_78" depart="38.07" from="gneE17" to="gneE15" type="car"/>
  <trip id="veh_79" depart="13.93" from="gneE9" to="gneE6" type="car"/>
  <trip id="veh_80" depart="87.18" from="gneE17" to="gneE1" type="car"/>
  <trip id="veh_81" depart="67.32" from="gneE1" to="gneE2" type="car"/>
  <trip id="veh_82" depart="52.58" from="gneE16" to="gneE17" type="car"/>
  <trip id="veh_83" depart="14.17" from="gneE16" to="gneE2" type="car"/>
  <trip id="veh_84" depart="76.62" from="gneE2" to="gneE3" type="car"/>
  <trip id="veh_85" depart="60.77" from="gneE7" to="gneE13" type="car"/>
  <trip id="veh_86" depart="10.79" from="gneE7" to="gneE1" type="car"/>
  <trip id="veh_87" depart="55.74" from="gneE13" to="gneE17" type="car"/>
  <trip id="veh_88" depart="28.47" from="gneE8" to="gneE6" type="car"/>
  <trip id="veh_89" depart="60.28" from="gneE10" to="gneE7" type="car"/>
  <trip id="veh_90" depart="23.91" from="gneE4" to="gneE10" type="car"/>
  <trip id="veh_91" depart="41.15" from="gneE2" to="gneE0" type="car"/>
  <trip id="veh_92" depart="41.25" from="gneE3" to="gneE2" type="car"/>
  <trip id="veh_93" depart="48.39" from="gneE16" to="gneE8" type="car"/>
  <trip id="veh_94" depart="11.92" from="gneE11" to="gneE2" type="car"/>
  <trip id="veh_95" depart="79.13" from="gneE11" to="gneE9" type="car"/>
  <trip id="veh_96" depart="14.20" from="gneE17" to="gneE9" type="car"/>
  <trip id="veh_97" depart="55.05" from="gneE16" to="gneE0" type="car"/>
  <trip id="veh_98" depart="60.11" from="gneE17" to="gneE9" type="car"/>
  <trip id="veh_99" depart="83.86" from="gneE3" to="gneE5" type="car"/>
  <trip id="veh_100" depart="23.80" from="gneE3" to="gneE5" type="car"/>
  <trip id="veh_101" depart="24.51" from="gneE6" to="gneE11" type="car"/>
  <trip id="veh_102" depart="18.32" from="gneE8" to="gneE17" type="car"/>
  <trip id="veh_103" depart="43.97" from="gneE1" to="gneE3" type="car"/>
  <trip id="veh_104" depart="57.09" from="gneE8" to="gneE1" type="car"/>
  <trip id="veh_105" depart="0.32" from="gneE4" to="gneE9" type="car"/>
  <trip id="veh_106" depart="14.54" from="gneE14" to="gneE13" type="car"/>
  <trip id="veh_107" depart="50.48" from="gneE3" to="gneE2" type="car"/>
  <trip id="veh_108" depart="85.05" from="gneE4" to="gneE1" type="car"/>
  <trip id="veh_109" depart="75.11" from="gneE17" to="gneE4" type="car"/>
  <trip id="veh_110" depart="38.68" from="gneE1" to="gneE10" type="car"/>
  <trip id="veh_111" depart="32.82" from="gneE1" to="gneE12" type="car"/>
  <trip id="veh_112" depart="18.91" from="gneE7" to="gneE3" type="car"/>
  <trip id="veh_113" depart="31.83" from="gneE17" to="gneE13" type="car"/>
  <trip id="veh_114" depart="87.65" from="gneE4" to="gneE8" type="car"/>
  <trip id="veh_115" depart="77.81" from="gneE5" to="gneE14" type="car"/>
  <trip id="veh_116" depart="2.23" from="gneE10" to="gneE14" type="car"/>
  <trip id="veh_117" depart="72.20" from="gneE7" to="gneE9" type="car"/>
  <trip id="veh_118" depart="14.33" from="gneE3" to="gneE13" type="car"/>
  <trip id="veh_119" depart="78.50" from="gneE15" to="gneE7" type="car"/>
  <trip id="veh_120" depart="17.96" from="gneE14" to="gneE11" type="car"/>
  <trip id="veh_121" depart="27.47" from="gneE7" to="gneE8" type="car"/>
  <trip id="veh_122" depart="2.13" from="gneE6" to="gneE13" type="car"/>
  <trip id="veh_123" depart="29.54" from="gneE2" to="gneE9" type="car"/>
  <trip id="veh_124" depart="31.60" from="gneE16" to="gneE12" type="car"/>
  <trip id="veh_125" depart="61.16" from="gneE17" to="gneE10" type="car"/>
  <trip id="veh_126" depart="84.53" from="gneE3" to="gneE9" type="car"/>
  <trip id="veh_127" depart="16.07" from="gneE8" to="gneE1" type="car"/>
  <trip id="veh_128" depart="9.76" from="gneE13" to="gneE11" type="car"/>
  <trip id="veh_129" depart="65.57" from="gneE10" to="gneE14" type="car"/>
  <trip id="veh_130" depart="54.56" from="gneE16" to="gneE3" type="car"/>
  <trip id="veh_131" depart="34.67" from="gneE6" to="gneE9" type="car"/>
  <trip id="veh_132" depart="3.99" from="gneE13" to="gneE0" type="car"/>
  <trip id="veh_133" depart="46.79" from="gneE17" to="gneE6" type="car"/>
  <trip id="veh_134" depart="32.78" from="gneE2" to="gneE11" type="car"/>
  <trip id="veh_135" depart="56.08" from="gneE3" to="gneE10" type="car"/>
  <trip id="veh_136" depart="45.64" from="gneE13" to="gneE10" type="car"/>
  <trip id="veh_137" depart="36.22" from="gneE9" to="gneE4" type="car"/>
  <trip id="veh_138" depart="17.27" from="gneE12" to="gneE5" type="car"/>
  <trip id="veh_139" depart="55.40" from="gneE9" to="gneE13" type="car"/>
  <trip id="veh_140" depart="49.31" from="gneE0" to="gneE10" type="car"/>
  <trip id="veh_141" depart="25.82" from="gneE13" to="gneE10" type="car"/>
  <trip id="veh_142" depart="41.85" from="gneE14" to="gneE6" type="car"/>
  <trip id="veh_143" depart="46.01" from="gneE5" to="gneE2" type="car"/>
  <trip id="veh_144" depart="25.54" from="gneE10" to="gneE2" type="car"/>
  <trip id="veh_145" depart="73.66" from="gneE7" to="gneE10" type="car"/>
  <trip id="veh_146" depart="20.22" from="gneE6" to="gneE4" type="car"/>
  <trip id="veh_147" depart="2.20" from="gneE7" to="gneE16" type="car"/>
  <trip id="veh_148" depart="55.01" from="gneE2" to="gneE15" type="car"/>
  <trip id="veh_149" depart="37.30" from="gneE6" to="gneE13" type="car"/>
  <trip id="veh_150" depart="44.49" from="gneE7" to="gneE4" type="car"/>
  <trip id="veh_151" depart="59.05" from="gneE0" to="gneE4" type="car"/>
  <trip id="veh_152" depart="70.06" from="gneE7" to="gneE5" type="car"/>
  <trip id="veh_153" depart="72.37" from="gneE16" to="gneE14" type="car"/>
  <trip id="veh_154" depart="4.52" from="gneE7" to="gneE3" type="car"/>
  <trip id="veh_155" depart="41.08" from="gneE14" to="gneE17" type="car"/>
  <trip id="veh_156" depart="88.91" from="gneE10" to="gneE15" type="car"/>
  <trip id="veh_157" depart="55.14" from="gneE16" to="gneE13" type="car"/>
  <trip id="veh_158" depart="74.75" from="gneE17" to="gneE14" type="car"/>
  <trip id="veh_159" depart="80.75" from="gneE15" to="gneE14" type="car"/>
  <trip id="veh_160" depart="23.33" from="gneE7" to="gneE9" type="car"/>
  <trip id="veh_161" depart="68.92" from="gneE16" to="gneE15" type="car"/>
  <trip id="veh_162" depart="56.41" from="gneE8" to="gneE15" type="car"/>
  <trip id="veh_163" depart="6.97" from="gneE9" to="gneE7" type="car"/>
  <trip id="veh_164" depart="24.45" from="gneE10" to="gneE2" type="car"/>
  <trip id="veh_165" depart="12.45" from="gneE7" to="gneE13" type="car"/>
  <trip id="veh_166" depart="62.46" from="gneE6" to="gneE2" type="car"/>
  <trip id="veh_167" depart="37.34" from="gneE10" to="gneE15" type="car"/>
  <trip id="veh_168" depart="37.42" from="gneE6" to="gneE14" type="car"/>
  <trip id="veh_169" depart="35.05" from="gneE0" to="gneE13" type="car"/>
  <trip id="veh_170" depart="42.93" from="gneE11" to="gneE9" type="car"/>
  <trip id="veh_171" depart="67.81" from="gneE13" to="gneE7" type="car"/>
  <trip id="veh_172" depart="43.94" from="gneE8" to="gneE14" type="car"/>
  <trip id="veh_173" depart="43.71" from="gneE12" to="gneE10" type="car"/>
  <trip id="veh_174" depart="60.20" from="gneE12" to="gneE5" type="car"/>
  <trip id="veh_175" depart="75.65" from="gneE4" to="gneE0" type="car"/>
  <trip id="veh_176" depart="81.62" from="gneE0" to="gneE3" type="car"/>
  <trip id="veh_177" depart="57.85" from="gneE4" to="gneE15" type="car"/>
  <trip id="veh_178" depart="16.36" from="gneE8" to="gneE13" type="car"/>
  <trip id="veh_179" depart="29.46" from="gneE14" to="gneE10" type="car"/>
  <trip id="veh_180" depart="30.38" from="gneE12" to="gneE8" type="car"/>
  <trip id="veh_181" depart="67.68" from="gneE13" to="gneE8" type="car"/>
  <trip id="veh_182" depart="75.14" from="gneE15" to="gneE0" type="car"/>
  <trip id="veh_183" depart="67.41" from="gneE1" to="gneE12" type="car"/>
  <trip id="veh_184" depart="20.18" from="gneE2" to="gneE1" type="car"/>
  <trip id="veh_185" depart="67.88" from="gneE7" to="gneE6" type="car"/>
  <trip id="veh_186" depart="75.53" from="gneE4" to="gneE8" type="car"/>
  <trip id="veh_187" depart="11.36" from="gneE3" to="gneE7" type="car"/>
  <trip id="veh_188" depart="41.85" from="gneE8" to="gneE12" type="car"/>
  <trip id="veh_189" depart="15.10" from="gneE3" to="gneE6" type="car"/>
  <trip id="veh_190" depart="86.82" from="gneE3" to="gneE0" type="car"/>
  <trip id="veh_191" depart="83.60" from="gneE12" to="gneE13" type="car"/>
  <trip id="veh_192" depart="84.73" from="gneE6" to="gneE2" type="car"/>
  <trip id="veh_193" depart="53.29" from="gneE7" to="gneE3" type="car"/>
  <trip id="veh_194" depart="62.75" from="gneE9" to="gneE3" type="car"/>
  <trip id="veh_195" depart="71.66" from="gneE1" to="gneE12" type="car"/>
  <trip id="veh_196" depart="47.95" from="gneE11" to="gneE2" type="car"/>
  <trip id="veh_197" depart="45.54" from="gneE10" to="gneE0" type="car"/>
  <trip id="veh_198" depart="76.46" from="gneE15" to="gneE3" type="car"/>
  <trip id="veh_199" depart="39.02" from="gneE11" to="gneE15" type="car"/>
</routes>
