<?xml version="1.0" encoding="UTF-8"?>

<!-- generated on 2025-11-23 10:25:15 by Eclipse SUMO netconvert Version 1.24.0
<netconvertConfiguration xmlns:xsi="http://www.w3.org/2001/XMLSchema-instance" xsi:noNamespaceSchemaLocation="http://sumo.dlr.de/xsd/netconvertConfiguration.xsd">

    <input>
        <osm-files value="d:\proof_carrying_crowdsensing\sumo_real_small\shanghai_bbox.osm.xml"/>
    </input>

    <output>
        <output-file value="d:\proof_carrying_crowdsensing\sumo_real_small\shanghai.net.xml"/>
    </output>

    <projection>
        <proj.utm value="true"/>
    </projection>

    <report>
        <verbose value="true"/>
    </report>

</netconvertConfiguration>
-->

<net version="1.20" junctionCornerDetail="5" limitTurnSpeed="5.50" xmlns:xsi="http://www.w3.org/2001/XMLSchema-instance" xsi:noNamespaceSchemaLocation="http://sumo.dlr.de/xsd/net_file.xsd">

    <location netOffset="-337299.12,-3448133.22" convBoundary="0.00,0.00,25671.45,12596.58" origBoundary="121.292460,31.157599,121.561614,31.269522" projParameter="+proj=utm +zone=51 +ellps=WGS84 +datum=WGS84 +units=m +no_defs"/>

    <type id="highway.cycleway" priority="1" numLanes="1" speed="5.56" allow="bicycle" oneway="0" width="2.00"/>
    <type id="highway.footway" priority="1" numLanes="1" speed="2.78" allow="pedestrian" oneway="1" width="2.00"/>
    <type id="highway.path" priority="1" numLanes="1" speed="5.56" allow="pedestrian bicycle" oneway="0" width="2.00"/>
    <type id="highway.pedestrian" priority="1" numLanes="1" speed="2.78" allow="pedestrian" oneway="1" width="2.00"/>
    <type id="highway.primary" priority="12" numLanes="2" speed="27.78" disallow="tram rail_urban rail rail_electric rail_fast ship container cable_car subway aircraft wheelchair scooter drone" oneway="0"/>
    <type id="highway.residential" priority="3" numLanes="1" speed="13.89" disallow="tram rail_urban rail rail_electric rail_fast ship container cable_car subway aircraft wheelchair scooter drone" oneway="0"/>
    <type id="highway.secondary" priority="11" numLanes="1" speed="27.78" disallow="tram rail_urban rail rail_electric rail_fast ship container cable_car subway aircraft wheelchair scooter drone" oneway="0"/>
    <type id="highway.service" priority="1" numLanes="1" speed="5.56" allow="pedestrian delivery bicycle" oneway="0"/>
    <type id="highway.service|psv" priority="1" numLanes="1" speed="13.89" allow="pedestrian bus delivery bicycle" oneway="0"/>
    <type id="highway.steps" priority="1" numLanes="1" speed="1.39" allow="pedestrian" oneway="1" width="2.00"/>
    <type id="highway.tertiary" priority="10" numLanes="1" speed="22.22" disallow="tram rail_urban rail rail_electric rail_fast ship container cable_car subway aircraft wheelchair scooter drone" oneway="0"/>
    <type id="highway.tertiary_link" priority="5" numLanes="1" speed="22.22" disallow="tram rail_urban rail rail_electric rail_fast ship container cable_car subway aircraft wheelchair scooter drone" oneway="0"/>
    <type id="highway.trunk" priority="13" numLanes="2" speed="27.78" disallow="pedestrian bicycle tram rail_urban rail rail_electric rail_fast ship container cable_car subway aircraft wheelchair scooter drone" oneway="0"/>
    <type id="highway.trunk_link" priority="8" numLanes="1" speed="22.22" disallow="pedestrian bicycle tram rail_urban rail rail_electric rail_fast ship container cable_car subway aircraft wheelchair scooter drone" oneway="0"/>
    <type id="railway.subway" priority="18" numLanes="1" speed="27.78" allow="subway" oneway="1"/>

    <edge id=":103781535_0" function="internal">
        <lane id=":103781535_0_0" index="0" allow="subway" speed="27.78" length="0.30" shape="18257.34,9108.74 18257.06,9108.65"/>
    </edge>
    <edge id=":103869461_0" function="internal">
        <lane id=":103869461_0_0" index="0" disallow="tram rail_urban rail rail_electric rail_fast ship container cable_car subway aircraft wheelchair scooter drone" speed="22.22" length="8.21" shape="17877.71,8169.65 17876.78,8171.86 17876.49,8173.52 17876.22,8175.19 17875.31,8177.41"/>
        <lane id=":103869461_0_1" index="1" disallow="tram rail_urban rail rail_electric rail_fast ship container cable_car subway aircraft wheelchair scooter drone" speed="22.22" length="8.21" shape="17874.91,8168.11 17873.97,8170.33 17873.68,8172.00 17873.40,8173.67 17872.49,8175.90"/>
        <lane id=":103869461_0_2" index="2" disallow="tram rail_urban rail rail_electric rail_fast ship container cable_car subway aircraft wheelchair scooter drone" speed="22.22" length="8.21" shape="17874.91,8168.11 17873.53,8170.09 17872.27,8171.24 17871.03,8172.39 17869.67,8174.39"/>
    </edge>
    <edge id=":10754997585_0" function="internal">
        <lane id=":10754997585_0_0" index="0" disallow="tram rail_urban rail rail_electric rail_fast ship container cable_car subway aircraft wheelchair scooter drone" speed="13.89" length="3.86" shape="17023.72,8875.50 17024.65,8871.76"/>
    </edge>
    <edge id=":11101896422_0" function="internal">
        <lane id=":11101896422_0_0" index="0" disallow="tram rail_urban rail rail_electric rail_fast ship container cable_car subway aircraft wheelchair scooter drone" speed="22.22" length="5.02" shape="17512.03,8947.42 17510.73,8952.26"/>
        <lane id=":11101896422_0_1" index="1" disallow="tram rail_urban rail rail_electric rail_fast ship container cable_car subway aircraft wheelchair scooter drone" speed="22.22" length="5.02" shape="17508.94,8946.58 17507.63,8951.43"/>
    </edge>
    <edge id=":11101896423_0" function="internal">
        <lane id=":11101896423_0_0" index="0" allow="pedestrian delivery bicycle" speed="5.56" length="4.70" shape="17548.93,8959.17 17547.30,8963.57"/>
    </edge>
    <edge id=":11101896423_1" function="internal">
        <lane id=":11101896423_1_0" index="0" allow="pedestrian delivery bicycle" speed="3.65" length="1.44" shape="17548.93,8959.17 17547.75,8959.99"/>
    </edge>
    <edge id=":11101896423_4" function="internal">
        <lane id=":11101896423_4_0" index="0" allow="pedestrian delivery bicycle" speed="3.65" length="3.23" shape="17547.75,8959.99 17546.86,8960.07 17546.26,8959.40 17545.96,8957.99"/>
    </edge>
    <edge id=":11101896423_2" function="internal">
        <lane id=":11101896423_2_0" index="0" allow="pedestrian delivery bicycle" speed="5.56" length="4.82" shape="17544.28,8962.51 17545.96,8957.99"/>
    </edge>
    <edge id=":11101896423_3" function="internal">
        <lane id=":11101896423_3_0" index="0" allow="pedestrian delivery bicycle" speed="3.65" length="1.44" shape="17544.28,8962.51 17545.44,8961.64"/>
    </edge>
    <edge id=":11101896423_5" function="internal">
        <lane id=":11101896423_5_0" index="0" allow="pedestrian delivery bicycle" speed="3.65" length="3.23" shape="17545.44,8961.64 17546.32,8961.53 17546.95,8962.17 17547.30,8963.57"/>
    </edge>
    <edge id=":11101896424_0" function="internal">
        <lane id=":11101896424_0_0" index="0" disallow="tram rail_urban rail rail_electric rail_fast ship container cable_car subway aircraft wheelchair scooter drone" speed="22.22" length="5.05" shape="17539.60,8851.50 17538.11,8856.31"/>
        <lane id=":11101896424_0_1" index="1" disallow="tram rail_urban rail rail_electric rail_fast ship container cable_car subway aircraft wheelchair scooter drone" speed="22.22" length="5.05" shape="17536.55,8850.54 17535.05,8855.37"/>
    </edge>
    <edge id=":11101896429_0" function="internal">
        <lane id=":11101896429_0_0" index="0" disallow="tram rail_urban rail rail_electric rail_fast ship container cable_car subway aircraft wheelchair scooter drone" speed="22.22" length="5.01" shape="17533.96,8869.79 17532.49,8874.58"/>
        <lane id=":11101896429_0_1" index="1" disallow="tram rail_urban rail rail_electric rail_fast ship container cable_car subway aircraft wheelchair scooter drone" speed="22.22" length="5.01" shape="17530.90,8868.85 17529.43,8873.65"/>
    </edge>
    <edge id=":11103594147_0" function="internal">
        <lane id=":11103594147_0_0" index="0" disallow="tram rail_urban rail rail_electric rail_fast ship container cable_car subway aircraft wheelchair scooter drone" speed="22.22" length="9.45" shape="17531.05,8879.33 17528.33,8888.38"/>
        <lane id=":11103594147_0_1" index="1" disallow="tram rail_urban rail rail_electric rail_fast ship container cable_car subway aircraft wheelchair scooter drone" speed="22.22" length="9.45" shape="17527.99,8878.40 17525.26,8887.46"/>
    </edge>
    <edge id=":11103594147_2" function="internal">
        <lane id=":11103594147_2_0" index="0" allow="pedestrian delivery bicycle" speed="6.51" length="8.03" shape="17527.99,8878.40 17527.01,8880.93 17525.83,8882.67 17524.47,8883.61 17522.91,8883.76"/>
    </edge>
    <edge id=":11103594147_3" function="internal">
        <lane id=":11103594147_3_0" index="0" allow="pedestrian delivery bicycle" speed="5.95" length="8.18" shape="17523.39,8880.60 17524.91,8881.24 17525.74,8882.60 17525.85,8884.67 17525.26,8887.46"/>
    </edge>
    <edge id=":11103594147_4" function="internal">
        <lane id=":11103594147_4_0" index="0" allow="pedestrian delivery bicycle" speed="3.65" length="4.67" shape="17523.39,8880.60 17524.46,8881.57 17524.73,8882.42 17524.22,8883.15 17522.91,8883.76"/>
    </edge>
    <edge id=":11104354052_0" function="internal">
        <lane id=":11104354052_0_0" index="0" disallow="tram rail_urban rail rail_electric rail_fast ship container cable_car subway aircraft wheelchair scooter drone" speed="13.89" length="4.90" shape="17491.61,8420.32 17494.37,8416.26"/>
    </edge>
    <edge id=":11104651471_0" function="internal">
        <lane id=":11104651471_0_0" index="0" disallow="tram rail_urban rail rail_electric rail_fast ship container cable_car subway aircraft wheelchair scooter drone" speed="13.89" length="5.00" shape="17763.48,9054.65 17758.80,9052.89"/>
    </edge>
    <edge id=":11104966884_0" function="internal">
        <lane id=":11104966884_0_0" index="0" disallow="tram rail_urban rail rail_electric rail_fast ship container cable_car subway aircraft wheelchair scooter drone" speed="22.22" length="6.45" shape="17379.35,8780.49 17384.49,8776.59"/>
    </edge>
    <edge id=":11104966885_0" function="internal">
        <lane id=":11104966885_0_0" index="0" disallow="tram rail_urban rail rail_electric rail_fast ship container cable_car subway aircraft wheelchair scooter drone" speed="13.89" length="3.75" shape="17377.07,8775.55 17376.75,8776.62 17376.55,8777.36 17376.28,8778.07 17375.77,8779.06"/>
    </edge>
    <edge id=":11104966885_1" function="internal">
        <lane id=":11104966885_1_0" index="0" disallow="tram rail_urban rail rail_electric rail_fast ship container cable_car subway aircraft wheelchair scooter drone" speed="13.89" length="6.24" shape="17371.44,8780.22 17372.35,8778.61 17372.94,8777.48 17373.43,8776.31 17374.03,8774.56"/>
    </edge>
    <edge id=":11105034074_0" function="internal">
        <lane id=":11105034074_0_0" index="0" allow="pedestrian delivery bicycle" speed="5.34" length="5.31" shape="17402.28,8863.08 17400.95,8863.05 17399.86,8863.50 17399.01,8864.43 17398.40,8865.84"/>
    </edge>
    <edge id=":11105034074_1" function="internal">
        <lane id=":11105034074_1_0" index="0" allow="pedestrian delivery bicycle" speed="5.56" length="9.36" shape="17402.28,8863.08 17393.12,8861.15"/>
    </edge>
    <edge id=":11105034074_2" function="internal">
        <lane id=":11105034074_2_0" index="0" allow="pedestrian delivery bicycle" speed="3.65" length="4.67" shape="17402.28,8863.08 17401.25,8862.07 17401.01,8861.21 17401.55,8860.50 17402.88,8859.94"/>
    </edge>
    <edge id=":11105034074_3" function="internal">
        <lane id=":11105034074_3_0" index="0" allow="pedestrian delivery bicycle" speed="5.56" length="9.24" shape="17393.84,8858.03 17402.88,8859.94"/>
    </edge>
    <edge id=":11105034074_4" function="internal">
        <lane id=":11105034074_4_0" index="0" allow="pedestrian delivery bicycle" speed="5.56" length="10.47" shape="17393.84,8858.03 17396.54,8859.07 17398.20,8860.72 17398.82,8862.98 17398.40,8865.84"/>
    </edge>
    <edge id=":11105034074_5" function="internal">
        <lane id=":11105034074_5_0" index="0" allow="pedestrian delivery bicycle" speed="3.65" length="4.67" shape="17393.84,8858.03 17394.83,8859.08 17395.04,8859.95 17394.47,8860.64 17393.12,8861.15"/>
    </edge>
    <edge id=":11105034074_6" function="internal">
        <lane id=":11105034074_6_0" index="0" allow="pedestrian delivery bicycle" speed="4.98" length="5.07" shape="17395.33,8864.94 17395.54,8863.55 17395.23,8862.45 17394.43,8861.65 17393.12,8861.15"/>
    </edge>
    <edge id=":11105034074_7" function="internal">
        <lane id=":11105034074_7_0" index="0" allow="pedestrian delivery bicycle" speed="5.56" length="10.11" shape="17395.33,8864.94 17396.48,8862.34 17398.12,8860.64 17400.25,8859.84 17402.88,8859.94"/>
    </edge>
    <edge id=":11105034074_8" function="internal">
        <lane id=":11105034074_8_0" index="0" allow="pedestrian delivery bicycle" speed="3.65" length="4.67" shape="17395.33,8864.94 17396.44,8864.01 17397.32,8863.85 17397.98,8864.46 17398.40,8865.84"/>
    </edge>
    <edge id=":11105034076_0" function="internal">
        <lane id=":11105034076_0_0" index="0" allow="pedestrian delivery bicycle" speed="5.95" length="8.19" shape="17331.15,8846.05 17329.70,8845.24 17329.03,8843.80 17329.14,8841.72 17330.04,8839.01"/>
    </edge>
    <edge id=":11105034076_1" function="internal">
        <lane id=":11105034076_1_0" index="0" allow="pedestrian delivery bicycle" speed="3.65" length="4.67" shape="17331.15,8846.05 17330.20,8844.97 17330.01,8844.09 17330.60,8843.42 17331.97,8842.95"/>
    </edge>
    <edge id=":11105034076_2" function="internal">
        <lane id=":11105034076_2_0" index="0" disallow="tram rail_urban rail rail_electric rail_fast ship container cable_car subway aircraft wheelchair scooter drone" speed="22.22" length="9.41" shape="17326.12,8847.56 17330.04,8839.01"/>
    </edge>
    <edge id=":11105034076_3" function="internal">
        <lane id=":11105034076_3_0" index="0" allow="pedestrian delivery bicycle" speed="6.65" length="8.03" shape="17326.12,8847.56 17327.50,8845.23 17328.93,8843.69 17330.42,8842.93 17331.97,8842.95"/>
    </edge>
    <edge id=":11107159150_0" function="internal">
        <lane id=":11107159150_0_0" index="0" disallow="tram rail_urban rail rail_electric rail_fast ship container cable_car subway aircraft wheelchair scooter drone" speed="13.89" length="5.00" shape="17596.19,8991.66 17591.49,8989.96"/>
    </edge>
    <edge id=":11107343122_0" function="internal">
        <lane id=":11107343122_0_0" index="0" allow="pedestrian delivery bicycle" speed="3.65" length="4.67" shape="17720.81,8553.28 17719.90,8552.16 17719.75,8551.28 17720.37,8550.63 17721.75,8550.22"/>
    </edge>
    <edge id=":11107343123_0" function="internal">
        <lane id=":11107343123_0_0" index="0" allow="pedestrian delivery bicycle" speed="5.56" length="7.70" shape="17796.21,8573.44 17798.08,8574.41 17799.20,8575.74 17799.57,8577.45 17799.18,8579.52"/>
    </edge>
    <edge id=":11107343123_1" function="internal">
        <lane id=":11107343123_1_0" index="0" allow="pedestrian delivery bicycle" speed="3.90" length="2.57" shape="17796.15,8578.49 17796.28,8577.80 17796.16,8577.23 17795.78,8576.79 17795.16,8576.47"/>
    </edge>
    <edge id=":11107343124_0" function="internal">
        <lane id=":11107343124_0_0" index="0" allow="pedestrian delivery bicycle" speed="5.56" length="9.24" shape="17794.59,8576.27 17785.82,8573.39"/>
    </edge>
    <edge id=":11107343124_1" function="internal">
        <lane id=":11107343124_1_0" index="0" allow="pedestrian delivery bicycle" speed="5.56" length="10.12" shape="17794.59,8576.27 17792.13,8575.00 17790.66,8573.24 17790.18,8571.00 17790.69,8568.28"/>
    </edge>
    <edge id=":11107343124_2" function="internal">
        <lane id=":11107343124_2_0" index="0" allow="pedestrian delivery bicycle" speed="3.65" length="4.67" shape="17794.59,8576.27 17793.72,8575.12 17793.61,8574.23 17794.25,8573.61 17795.64,8573.25"/>
    </edge>
    <edge id=":11107343124_3" function="internal">
        <lane id=":11107343124_3_0" index="0" allow="pedestrian delivery bicycle" speed="5.05" length="4.99" shape="17793.72,8569.31 17793.47,8570.65 17793.70,8571.75 17794.43,8572.62 17795.64,8573.25"/>
    </edge>
    <edge id=":11107343124_4" function="internal">
        <lane id=":11107343124_4_0" index="0" allow="pedestrian delivery bicycle" speed="5.56" length="10.08" shape="17793.72,8569.31 17792.47,8571.78 17790.74,8573.28 17788.53,8573.82 17785.82,8573.39"/>
    </edge>
    <edge id=":11107343124_5" function="internal">
        <lane id=":11107343124_5_0" index="0" allow="pedestrian delivery bicycle" speed="3.65" length="4.67" shape="17793.72,8569.31 17792.58,8570.19 17791.69,8570.31 17791.06,8569.67 17790.69,8568.28"/>
    </edge>
    <edge id=":11107343124_6" function="internal">
        <lane id=":11107343124_6_0" index="0" allow="pedestrian delivery bicycle" speed="5.09" length="5.02" shape="17786.77,8570.33 17788.11,8570.54 17789.21,8570.27 17790.07,8569.52 17790.69,8568.28"/>
    </edge>
    <edge id=":11107343124_7" function="internal">
        <lane id=":11107343124_7_0" index="0" allow="pedestrian delivery bicycle" speed="5.56" length="9.34" shape="17786.77,8570.33 17795.64,8573.25"/>
    </edge>
    <edge id=":11107343124_8" function="internal">
        <lane id=":11107343124_8_0" index="0" allow="pedestrian delivery bicycle" speed="3.65" length="4.67" shape="17786.77,8570.33 17787.68,8571.45 17787.82,8572.33 17787.20,8572.98 17785.82,8573.39"/>
    </edge>
    <edge id=":11107343125_0" function="internal">
        <lane id=":11107343125_0_0" index="0" allow="pedestrian delivery bicycle" speed="5.24" length="5.20" shape="17800.79,8557.75 17799.46,8557.62 17798.35,8557.97 17797.48,8558.81 17796.83,8560.15"/>
    </edge>
    <edge id=":11107343125_1" function="internal">
        <lane id=":11107343125_1_0" index="0" allow="pedestrian delivery bicycle" speed="5.56" length="6.67" shape="17800.79,8557.75 17794.36,8555.99"/>
    </edge>
    <edge id=":11107343125_2" function="internal">
        <lane id=":11107343125_2_0" index="0" allow="pedestrian delivery bicycle" speed="3.65" length="4.67" shape="17800.79,8557.75 17799.84,8556.67 17799.66,8555.80 17800.25,8555.13 17801.61,8554.66"/>
    </edge>
    <edge id=":11107343125_3" function="internal">
        <lane id=":11107343125_3_0" index="0" allow="pedestrian delivery bicycle" speed="5.56" length="6.59" shape="17795.26,8552.92 17801.61,8554.66"/>
    </edge>
    <edge id=":11107343125_4" function="internal">
        <lane id=":11107343125_4_0" index="0" allow="pedestrian delivery bicycle" speed="5.56" length="8.34" shape="17795.26,8552.92 17796.73,8553.77 17797.48,8555.26 17797.51,8557.39 17796.83,8560.15"/>
    </edge>
    <edge id=":11107343125_5" function="internal">
        <lane id=":11107343125_5_0" index="0" allow="pedestrian delivery bicycle" speed="3.65" length="4.67" shape="17795.26,8552.92 17796.19,8554.02 17796.35,8554.90 17795.74,8555.56 17794.36,8555.99"/>
    </edge>
    <edge id=":11107343125_6" function="internal">
        <lane id=":11107343125_6_0" index="0" allow="pedestrian delivery bicycle" speed="4.28" length="3.42" shape="17793.80,8559.12 17794.15,8558.27 17794.56,8557.30 17794.72,8556.46 17794.36,8555.99"/>
    </edge>
    <edge id=":11107343125_7" function="internal">
        <lane id=":11107343125_7_0" index="0" allow="pedestrian delivery bicycle" speed="5.56" length="10.12" shape="17793.80,8559.12 17795.05,8556.59 17796.77,8555.01 17798.96,8554.36 17801.61,8554.66"/>
    </edge>
    <edge id=":11107343125_8" function="internal">
        <lane id=":11107343125_8_0" index="0" allow="pedestrian delivery bicycle" speed="3.65" length="4.67" shape="17793.80,8559.12 17794.94,8558.24 17795.82,8558.12 17796.45,8558.75 17796.83,8560.15"/>
    </edge>
    <edge id=":11113312650_0" function="internal">
        <lane id=":11113312650_0_0" index="0" disallow="tram rail_urban rail rail_electric rail_fast ship container cable_car subway aircraft wheelchair scooter drone" speed="13.89" length="5.00" shape="17430.19,8588.43 17431.86,8583.71"/>
    </edge>
    <edge id=":11113312653_0" function="internal">
        <lane id=":11113312653_0_0" index="0" disallow="tram rail_urban rail rail_electric rail_fast ship container cable_car subway aircraft wheelchair scooter drone" speed="22.22" length="5.11" shape="17578.11,8588.46 17575.67,8592.96"/>
    </edge>
    <edge id=":11113312653_1" function="internal">
        <lane id=":11113312653_1_0" index="0" disallow="tram rail_urban rail rail_electric rail_fast ship container cable_car subway aircraft wheelchair scooter drone" speed="22.22" length="5.11" shape="17572.86,8591.43 17575.29,8586.93"/>
    </edge>
    <edge id=":11182234175_0" function="internal">
        <lane id=":11182234175_0_0" index="0" allow="pedestrian delivery bicycle" speed="5.38" length="5.41" shape="17366.61,8979.53 17366.38,8981.11 17366.61,8982.38 17367.30,8983.35 17368.45,8984.02"/>
    </edge>
    <edge id=":11182234175_1" function="internal">
        <lane id=":11182234175_1_0" index="0" allow="pedestrian delivery bicycle" speed="3.65" length="4.67" shape="17366.61,8979.53 17365.52,8980.49 17364.65,8980.67 17363.98,8980.08 17363.51,8978.71"/>
    </edge>
    <edge id=":11182234175_2" function="internal">
        <lane id=":11182234175_2_0" index="0" allow="pedestrian delivery bicycle" speed="4.94" length="5.12" shape="17359.62,8980.72 17361.01,8981.02 17362.12,8980.79 17362.96,8980.02 17363.51,8978.71"/>
    </edge>
    <edge id=":11182234175_3" function="internal">
        <lane id=":11182234175_3_0" index="0" disallow="tram rail_urban rail rail_electric rail_fast ship container cable_car subway aircraft wheelchair scooter drone" speed="13.89" length="9.43" shape="17359.62,8980.72 17368.45,8984.02"/>
    </edge>
    <edge id=":12023157344_0" function="internal">
        <lane id=":12023157344_0_0" index="0" disallow="tram rail_urban rail rail_electric rail_fast ship container cable_car subway aircraft wheelchair scooter drone" speed="22.22" length="3.00" shape="17555.57,8809.50 17554.23,8812.18"/>
        <lane id=":12023157344_0_1" index="1" disallow="tram rail_urban rail rail_electric rail_fast ship container cable_car subway aircraft wheelchair scooter drone" speed="22.22" length="3.00" shape="17552.70,8808.07 17551.37,8810.76"/>
    </edge>
    <edge id=":12379457646_0" function="internal">
        <lane id=":12379457646_0_0" index="0" allow="pedestrian delivery bicycle" speed="3.65" length="4.67" shape="17023.33,7909.13 17024.31,7908.07 17025.16,7907.80 17025.89,7908.33 17026.49,7909.64"/>
    </edge>
    <edge id=":12810493581_0" function="internal">
        <lane id=":12810493581_0_0" index="0" allow="pedestrian delivery bicycle" speed="5.16" length="5.20" shape="17905.00,8124.57 17903.61,8124.05 17902.41,8124.05 17901.39,8124.60 17900.55,8125.67"/>
    </edge>
    <edge id=":12810493581_1" function="internal">
        <lane id=":12810493581_1_0" index="0" allow="pedestrian delivery bicycle" speed="3.65" length="4.68" shape="17905.00,8124.57 17904.27,8123.32 17904.27,8122.43 17904.98,8121.88 17906.41,8121.70"/>
    </edge>
    <edge id=":12810493581_2" function="internal">
        <lane id=":12810493581_2_0" index="0" allow="pedestrian delivery bicycle" speed="5.04" length="5.06" shape="17905.13,8117.46 17904.64,8118.75 17904.69,8119.89 17905.28,8120.87 17906.41,8121.70"/>
    </edge>
    <edge id=":12810493581_3" function="internal">
        <lane id=":12810493581_3_0" index="0" disallow="tram rail_urban rail rail_electric rail_fast ship container cable_car subway aircraft wheelchair scooter drone" speed="22.22" length="9.40" shape="17905.13,8117.46 17900.55,8125.67"/>
        <lane id=":12810493581_3_1" index="1" disallow="tram rail_urban rail rail_electric rail_fast ship container cable_car subway aircraft wheelchair scooter drone" speed="22.22" length="9.40" shape="17902.34,8115.90 17897.75,8124.11"/>
    </edge>
    <edge id=":12810493582_0" function="internal">
        <lane id=":12810493582_0_0" index="0" allow="pedestrian delivery bicycle" speed="5.18" length="5.17" shape="17918.18,8132.47 17916.79,8132.00 17915.59,8132.06 17914.59,8132.63 17913.78,8133.71"/>
    </edge>
    <edge id=":12810493582_1" function="internal">
        <lane id=":12810493582_1_0" index="0" allow="pedestrian delivery bicycle" speed="5.56" length="10.14" shape="17918.18,8132.47 17915.56,8131.03 17913.87,8129.82 17912.19,8128.58 17909.63,8127.04"/>
    </edge>
    <edge id=":12810493582_2" function="internal">
        <lane id=":12810493582_2_0" index="0" allow="pedestrian delivery bicycle" speed="5.56" length="10.80" shape="17918.18,8132.47 17915.82,8130.83 17914.62,8128.78 17914.60,8126.32 17915.76,8123.45"/>
    </edge>
    <edge id=":12810493582_3" function="internal">
        <lane id=":12810493582_3_0" index="0" allow="pedestrian delivery bicycle" speed="3.67" length="4.74" shape="17918.18,8132.47 17917.65,8131.10 17917.79,8130.21 17918.59,8129.78 17920.05,8129.82"/>
    </edge>
    <edge id=":12810493582_4" function="internal">
        <lane id=":12810493582_4_0" index="0" allow="pedestrian delivery bicycle" speed="5.27" length="5.82" shape="17918.54,8125.02 17917.96,8126.52 17918.02,8127.82 17918.72,8128.92 17920.05,8129.82"/>
    </edge>
    <edge id=":12810493582_5" function="internal">
        <lane id=":12810493582_5_0" index="0" allow="pedestrian delivery bicycle" speed="5.56" length="9.91" shape="17918.54,8125.02 17913.78,8133.71"/>
    </edge>
    <edge id=":12810493582_6" function="internal">
        <lane id=":12810493582_6_0" index="0" allow="pedestrian delivery bicycle" speed="5.56" length="10.37" shape="17918.54,8125.02 17916.88,8127.10 17914.84,8128.13 17912.42,8128.11 17909.63,8127.04"/>
    </edge>
    <edge id=":12810493582_7" function="internal">
        <lane id=":12810493582_7_0" index="0" allow="pedestrian delivery bicycle" speed="3.65" length="4.67" shape="17918.54,8125.02 17917.26,8125.67 17916.36,8125.62 17915.86,8124.88 17915.76,8123.45"/>
    </edge>
    <edge id=":12810493582_8" function="internal">
        <lane id=":12810493582_8_0" index="0" allow="pedestrian delivery bicycle" speed="5.06" length="4.97" shape="17911.48,8124.41 17912.82,8124.93 17913.98,8124.94 17914.96,8124.44 17915.76,8123.45"/>
    </edge>
    <edge id=":12810493582_9" function="internal">
        <lane id=":12810493582_9_0" index="0" allow="pedestrian delivery bicycle" speed="5.56" length="10.13" shape="17911.48,8124.41 17920.05,8129.82"/>
    </edge>
    <edge id=":12810493582_10" function="internal">
        <lane id=":12810493582_10_0" index="0" allow="pedestrian delivery bicycle" speed="5.56" length="10.91" shape="17911.48,8124.41 17913.74,8126.13 17914.87,8128.25 17914.89,8130.78 17913.78,8133.71"/>
    </edge>
    <edge id=":12810493582_11" function="internal">
        <lane id=":12810493582_11_0" index="0" allow="pedestrian delivery bicycle" speed="3.66" length="4.70" shape="17911.48,8124.41 17912.00,8125.76 17911.87,8126.65 17911.08,8127.08 17909.63,8127.04"/>
    </edge>
    <edge id=":12810493582_12" function="internal">
        <lane id=":12810493582_12_0" index="0" allow="pedestrian delivery bicycle" speed="5.47" length="6.07" shape="17910.95,8132.20 17911.56,8130.58 17911.54,8129.18 17910.90,8128.00 17909.63,8127.04"/>
    </edge>
    <edge id=":12810493582_13" function="internal">
        <lane id=":12810493582_13_0" index="0" allow="pedestrian delivery bicycle" speed="5.56" length="9.99" shape="17910.95,8132.20 17915.76,8123.45"/>
    </edge>
    <edge id=":12810493582_14" function="internal">
        <lane id=":12810493582_14_0" index="0" allow="pedestrian delivery bicycle" speed="5.56" length="10.62" shape="17910.95,8132.20 17912.60,8130.03 17914.66,8128.91 17917.15,8128.84 17920.05,8129.82"/>
    </edge>
    <edge id=":12810493582_15" function="internal">
        <lane id=":12810493582_15_0" index="0" allow="pedestrian delivery bicycle" speed="3.65" length="4.67" shape="17910.95,8132.20 17912.22,8131.52 17913.12,8131.54 17913.63,8132.27 17913.78,8133.71"/>
    </edge>
    <edge id=":12863550700_0" function="internal">
        <lane id=":12863550700_0_0" index="0" allow="subway" speed="27.78" length="0.10" shape="17169.27,8264.73 17169.27,8264.73"/>
    </edge>
    <edge id=":12863561501_0" function="internal">
        <lane id=":12863561501_0_0" index="0" allow="subway" speed="27.78" length="0.10" shape="17175.83,8269.03 17175.83,8269.03"/>
    </edge>
    <edge id=":12863561502_0" function="internal">
        <lane id=":12863561502_0_0" index="0" allow="subway" speed="27.78" length="0.10" shape="17184.70,8275.60 17184.70,8275.60"/>
    </edge>
    <edge id=":12863561503_0" function="internal">
        <lane id=":12863561503_0_0" index="0" allow="subway" speed="27.78" length="0.10" shape="17190.62,8280.64 17190.62,8280.64"/>
    </edge>
    <edge id=":1314685709_0" function="internal">
        <lane id=":1314685709_0_0" index="0" allow="pedestrian delivery bicycle" speed="5.15" length="5.22" shape="17643.16,8928.11 17641.73,8927.95 17640.59,8928.28 17639.74,8929.10 17639.18,8930.41"/>
    </edge>
    <edge id=":1314685709_1" function="internal">
        <lane id=":1314685709_1_0" index="0" allow="pedestrian delivery bicycle" speed="5.56" length="9.59" shape="17643.16,8928.11 17633.84,8925.82"/>
    </edge>
    <edge id=":1314685709_2" function="internal">
        <lane id=":1314685709_2_0" index="0" allow="pedestrian delivery bicycle" speed="5.56" length="10.36" shape="17643.16,8928.11 17640.52,8927.02 17638.89,8925.36 17638.29,8923.11 17638.70,8920.29"/>
    </edge>
    <edge id=":1314685709_3" function="internal">