<?xml version="1.0" encoding="UTF-8"?>

<!-- generated on 2025-11-23 10:25:23.412307 by randomTrips.py v1_24_0+0000-b72eb3fabc8
<configuration>
    <net-file value="d:\proof_carrying_crowdsensing\sumo_real_small\shanghai.net.xml"/>
    <route-file value="d:\proof_carrying_crowdsensing\sumo_real_small\shanghai.rou.xml"/>
    <end value="1800.0"/>
    <period value="5.0"/>
</configuration>
-->

<!-- generated on 2025-11-23 10:25:23 by Eclipse SUMO duarouter Version 1.24.0
<duarouterConfiguration xmlns:xsi="http://www.w3.org/2001/XMLSchema-instance" xsi:noNamespaceSchemaLocation="http://sumo.dlr.de/xsd/duarouterConfiguration.xsd">

    <input>
        <net-file value="d:\proof_carrying_crowdsensing\sumo_real_small\shanghai.net.xml"/>
        <route-files value="trips.trips.xml"/>
    </input>

    <output>
        <output-file value="d:\proof_carrying_crowdsensing\sumo_real_small\shanghai.rou.xml"/>
        <alternatives-output value="NUL"/>
    </output>

    <time>
        <begin value="0"/>
        <end value="1800.0"/>
    </time>

    <report>
        <no-warnings value="true"/>
        <ignore-errors value="true"/>
        <no-step-log value="true"/>
    </report>

</duarouterConfiguration>
-->

<routes xmlns:xsi="http://www.w3.org/2001/XMLSchema-instance" xsi:noNamespaceSchemaLocation="http://sumo.dlr.de/xsd/routes_file.xsd">
    <vehicle id="0" depart="0.00">
        <route edges="39839521 150928465 1290439819 178583167#0 178583167#1 24621218#0 24621218#1 24621218#2 24621218#3 -474143552#0 -1323097580#1"/>
    </vehicle>
    <vehicle id="1" depart="5.00">
        <route edges="11624985#3 11624985#4 456475105#0 456475105#1 456475105#2 456475105#3 15670277#0 15670277#1 15670277#2 1074771168"/>
    </vehicle>
    <vehicle id="2" depart="10.00">
        <route edges="39920684#0 39921025#2 39920550#6 1235501860 1235501861#0 1235501861#1 1235501861#2 1074409255#0 1074409255#1 1074409255#2 1074409255#3 1074409255#4 1074409255#5 1235501864 1292568609 15670277#0 15670277#1 15670277#2 1074771169#0 1074771169#1 1074771169#2 1074771169#3 -39839919#8 39840341#1"/>
    </vehicle>
    <vehicle id="3" depart="15.00">
        <route edges="666886086#3 1290439819 178583167#0 178583167#1 24621218#0 24621218#1 24621218#2 24621218#3 474143552#1 474143552#2 474143552#3 -474143552#3"/>
    </vehicle>
    <vehicle id="4" depart="20.00">
        <route edges="1074771164#4 1074771164#5 -987438294#2 -987438294#1 -987438294#0 -900279895#2 -900279895#1 -900279895#0 178583155#0"/>
    </vehicle>
    <vehicle id="5" depart="25.00">
        <route edges="-150928463#1 -150928463#0 39839504#0 39839504#1 1068447133#0 1068447133#1 1068447133#2 1068447133#3 1068447133#4 1068447133#5 1068447133#6 1074771168 483897834#0 483897834#1 483897834#2 483897834#3 1074771162#0 1074771162#1 1292578258 1292578259 1235501864 1074771161"/>
    </vehicle>
    <vehicle id="6" depart="30.00">
        <route edges="39840268#3 39840268#4 39840268#5 39840268#6 474802256#4 1068447134#0 1068447134#1 1068447134#2 39839504#0 39839504#1 47150994 900279892#0 900279892#1 900279892#2 900279891#0 900279891#1 987437440 39839521 150928465 1290439819 178583167#0"/>
    </vehicle>
    <vehicle id="7" depart="35.00">
        <route edges="1074771164#5 900279889#0 900279889#1 11624985#0 11624985#1 11624985#2 11624985#3 11624985#4 24577455#5 24577455#6 24577455#7 24577455#8 24577455#9 24577455#10 24577455#11 24577455#12 24577455#13"/>
    </vehicle>
    <vehicle id="8" depart="40.00">
        <route edges="474143552#0 474143552#1 474143552#2 474143552#3 474143552#4 488788626#0 488788626#1 488788626#2 178699054 1074409255#0 1074409255#1 1074409255#2 1074409255#3 1074409255#4 1074409255#5 1235501864 1292568609 15670277#0 15670277#1 15670277#2 -1068447133#6 -1068447133#5 -1068447133#4 -1068447133#3 -1068447133#2"/>
    </vehicle>
    <vehicle id="9" depart="45.00">
        <route edges="47268380#2 47268380#3 73898394#1 39840268#2 39840268#3 39840268#4 39840268#5 39840268#6 474802256#4 1068447134#0 1068447134#1 1068447134#2 150928463#0 150928463#1 475446753#0 475446753#1 475446753#2 475446753#3 475446753#4 11624985#2 11624985#3 11624985#4 24577455#5 24577455#6 24577455#7 24577455#8 24577455#9 24577455#10 24577455#11 9832326#2 178583140#2 178583140#3 178583140#4 39841492#0"/>
    </vehicle>
    <vehicle id="10" depart="50.00">
        <route edges="1272548721 1074409232#0 1074409232#1 1064476623 1067852461"/>
    </vehicle>
    <vehicle id="11" depart="55.00">
        <route edges="900279895#0 900279895#1 -900279895#1 -900279895#0 178583155#0 178583155#1 666886086#2 666886086#3 1290439818 1235501861#0 1235501861#1 1235501861#2 1064476624 1067852461 1125986405 40297647#0 40297647#1 40297647#2 1235501862"/>
    </vehicle>
    <vehicle id="12" depart="60.00">
        <route edges="-73898738#1"/>
    </vehicle>
    <vehicle id="13" depart="65.00">
        <route edges="475446753#6 9832326#5 -900279891#1 -900279891#0 11624985#0 11624985#1 11624985#2 11624985#3 11624985#4 24577455#5 24577455#6 24577455#7"/>
    </vehicle>
    <vehicle id="14" depart="70.00">
        <route edges="47268380#3 73898394#1 39840268#2 39840268#3 39840268#4 39840268#5 39840268#6 474802256#4 1068447134#0 1068447134#1 1068447134#2 39839504#0 39839504#1 47150994 900279892#0 900279892#1 900279892#2 900279891#0 900279891#1 987437440 39839521 150928465 1290439819 178583167#0 178583167#1 24621218#0 24621218#1 24621218#2 24621218#3 474143552#1 474143552#2 39920550#1 39920550#2"/>
    </vehicle>
    <vehicle id="15" depart="75.00">
        <route edges="178583162#8 178583162#9 178583162#10 1297720371#0 1297720371#1 1297720371#2 1297720371#3 1068447134#0 1068447134#1 1068447134#2 39839504#0 39839504#1 47150994 900279892#0 900279892#1 900279892#2 900279891#0 900279891#1 987437440 39839521 150928465 1290439818 1235501861#0 1235501861#1 1235501861#2 1074409255#0 1074409255#1 1074409255#2 9832326#0"/>
    </vehicle>
    <vehicle id="16" depart="80.00">
        <route edges="474802256#4 1068447134#0 1068447134#1 1068447134#2 39839504#0 39839504#1 47150994 900279892#0 900279892#1 900279892#2 900279891#0 900279891#1 987437440 39839521 24577522#0 24577522#1 24577522#2 24577522#3"/>
    </vehicle>
    <vehicle id="17" depart="85.00">
        <route edges="1074771169#1 1074771169#2 1074771169#3 -39839919#8 -39839919#7 -39839919#6 -39839919#5 -39839919#4 474802256#2 474802256#3 474802256#4 1068447134#0 1068447134#1 1068447134#2 39839504#0 39839504#1 47150994 900279892#0 900279892#1 900279892#2 900279891#0 900279891#1 987437440 39839521 150928465 1290439819 178583167#0 178583167#1 24621218#0 24621218#1 39921025#5 1323097579#2 11631594#0 11631594#1 11631594#2 11631594#3"/>
    </vehicle>
    <vehicle id="18" depart="90.00">
        <route edges="-474143552#2 474143552#2 474143552#3 474143552#4 488788626#0 488788626#1 488788626#2 178699054 1074409255#0 1074409255#1 1074409255#2 1074409255#3 1074409255#4 1074409255#5 1235501864 1292568609 15670277#0 15670277#1 15670277#2 1074771169#0 1074771169#1 1074771169#2 1074771169#3"/>
    </vehicle>
    <vehicle id="19" depart="95.00">
        <route edges="-73898795#2 -73898795#1 -73898795#0 1064476625#2 1292568612 666886086#0 1292568611 178583151 900279895#0 900279895#1 900279895#2 987438294#0 987438294#1 987438294#2 900279889#0 900279889#1 11624985#0 11624985#1 11624985#2 11624985#3"/>
    </vehicle>
    <vehicle id="20" depart="100.00">
        <route edges="39839504#1 1068447133#0 1068447133#1 1068447133#2 1068447133#3 1068447133#4 1068447133#5 1068447133#6 1074771168 483897834#0 483897834#1 483897834#2 483897834#3 1074771162#0 1074771162#1 1292578258"/>
    </vehicle>
    <vehicle id="21" depart="105.00">
        <route edges="1297720371#2 1297720371#3 1068447134#0 1068447134#1 1068447134#2 150928463#0 150928463#1 1068447133#1 1068447133#2 1068447133#3 1068447133#4 1068447133#5 1068447133#6 1074771168 483897834#0 483897834#1 483897834#2 483897834#3 1074771162#0 1074771162#1 1292578258 1074771163#0 1074771163#1"/>
    </vehicle>
    <vehicle id="22" depart="110.00">
        <route edges="11624973#4 900279892#0 900279892#1 900279892#2 900279891#0 900279891#1 987438296 987438295 987438294#0 987438294#1 987438294#2 900279889#0"/>
    </vehicle>
    <vehicle id="23" depart="115.00">
        <route edges="39840268#2 39840268#3 39840268#4 39840268#5 39840268#6 474802256#4 1068447134#0 1068447134#1 1068447134#2 150928463#0 150928463#1 475446753#0 475446753#1 475446753#2 475446753#3 475446753#4 11624985#2 11624985#3 11624985#4 24577455#5 24577455#6 24577455#7 24577455#8 24577455#9"/>
    </vehicle>
    <vehicle id="24" depart="120.00">
        <route edges="1068447134#0 1068447134#1 1068447134#2 39839504#0 39839504#1 47150994 900279892#0 900279892#1 900279892#2 900279891#0 900279891#1 987437440 39839521 150928465 1290439819 178583167#0 178583167#1 24621218#0 24621218#1 24621218#2 24621218#3 474143552#1 474143552#2 39920550#1 39920550#2"/>
    </vehicle>
    <vehicle id="25" depart="125.00">
        <route edges="1068447133#3 1068447133#4 -1068447133#4 -1068447133#3 -1068447133#2 -1068447133#1 -1068447133#0 -1297720374 178583162#0 178583162#1 178583162#2 178583162#3 178583162#4 178583162#5 178583162#6 178583162#7 178583162#8 178583162#9 178583162#10 1297720372#0"/>
    </vehicle>
    <vehicle id="26" depart="130.00">
        <route edges="987438294#0 987438294#1 987438294#2 900279889#0 900279889#1 11624985#0 11624985#1 11624985#2 11624985#3 11624985#4 456475105#0 456475105#1 456475105#2 456475105#3 1292568610 1074771162#0 1074771162#1 39763700#0 39763700#1 39763700#2 39763700#3"/>
    </vehicle>
    <vehicle id="27" depart="135.00">
        <route edges="475446753#4 11624985#2 11624985#3 11624985#4 456475105#0 456475105#1 456475105#2 456475105#3 1292568610 1074771162#0 1074771162#1 1292578258 1074771163#0 1074771163#1 1272548721 1074409232#0 1074409232#1 1064476623 1067852461 1125986405 40297647#0 40297647#1 40297647#2"/>
    </vehicle>
    <vehicle id="28" depart="140.00">
        <route edges="1196980683#6 1196980683#7 1196980683#8 1196980683#9 -39839919#4 474802256#2 474802256#3 474802256#4 1068447134#0 1068447134#1 1068447134#2 150928463#0 150928463#1 475446753#0 11624973#4"/>
    </vehicle>
    <vehicle id="29" depart="145.00">
        <route edges="1074771164#1 1074771164#2 1074771164#3 1074771164#4 1074771164#5 900279889#0 900279889#1 900279891#0"/>
    </vehicle>
    <vehicle id="30" depart="150.00">
        <route edges="73898447#3 73898447#4 73898447#5 1297720371#0 1297720371#1 1297720371#2 1297720371#3 1068447134#0 1068447134#1 1068447134#2 39839504#0 39839504#1 47150994 900279892#0 900279892#1 900279892#2 900279891#0 900279891#1 987437440 39839521 24577522#0 178583140#1"/>
    </vehicle>
    <vehicle id="31" depart="155.00">
        <route edges="11624973#3 475446753#1 475446753#2 475446753#3 475446753#4 11624985#2 11624985#3 11624985#4 456475105#0 456475105#1 456475105#2 456475105#3 1292568610 1074771162#0 1074771162#1 1292578258 1074771163#0 1074771163#1 1272548721 1074409232#0 1074409232#1 1064476623 1067852461 1125986405 40297647#0 40297647#1 40297647#2 1235501862 1100626103#0 1100626103#1"/>
    </vehicle>
    <vehicle id="32" depart="160.00">
        <route edges="24577455#2 24577455#3 24577455#4 456475105#0 456475105#1 456475105#2 456475105#3 15670277#0 15670277#1 15670277#2 1074771169#0 1074771169#1 1074771169#2 1074771169#3 -39839919#8 39840341#1 39840268#0 39840268#1 73898394#2"/>
    </vehicle>
    <vehicle id="33" depart="165.00">
        <route edges="987438295 178441747#0 178441747#1 -73898795#2 -73898795#1 -73898795#0 1064476625#2 1292568612 178583158"/>
    </vehicle>
    <vehicle id="34" depart="170.00">
        <route edges="-73898738#0 -987437440 -900279891#1 -900279891#0 -900279892#2 -900279892#1 -900279892#0 -47150994 1068447133#0 1068447133#1 1068447133#2 178583140#9 1196980683#0 1196980683#1 1196980683#2 47268380#2 47268380#3 73898394#1 73898394#2 73898394#3 -39839919#5"/>
    </vehicle>
    <vehicle id="35" depart="175.00">
        <route edges="-900279892#1 -900279892#0 900279892#0 900279892#1 900279892#2 900279891#0 900279891#1 987437440 39839521 150928465 1290439819 178583167#0 178583167#1 24621218#0 24621218#1 24621218#2 24621218#3"/>
    </vehicle>
    <vehicle id="36" depart="180.00">
        <route edges="47150988#3 47150988#4 1297720374 1068447133#0 1068447133#1 1068447133#2 1068447133#3 1068447133#4 1068447133#5 1068447133#6 1074771168 483897834#0 483897834#1 483897834#2 483897834#3 1074771162#0 1074771162#1 1292578258 1292578259 1235501864 1292568609 15670277#0 15670277#1"/>
    </vehicle>
    <vehicle id="37" depart="185.00">
        <route edges="-47150988#1 47150988#1 47150988#2 47150988#3 47150988#4 178583162#0 178583162#1 178583162#2 178583162#3 178583162#4 178583162#5 178583162#6 178583162#7 178583162#8 178583162#9 178583162#10 1297720372#0 1297720372#1"/>
    </vehicle>
    <vehicle id="38" depart="190.00">
        <route edges="987438295 987438294#0 987438294#1 987438294#2 900279888#0 900279888#1 1297720373 178583162#0 178583162#1 178583162#2 178583162#3"/>
    </vehicle>
    <vehicle id="39" depart="195.00">
        <route edges="-1068447133#4 -1068447133#3 1068447133#3 1068447133#4 1068447133#5 1068447133#6 1074771168 483897834#0 483897834#1 483897834#2 483897834#3 1074771162#0 1074771162#1 1292578258 1074771163#0 1074771163#1 1272548721 1074409232#0 1074409232#1 1064476623 1067852461 1125986405 40297647#0 40297647#1 40297647#2 1235501862 1100626103#0 39920505#0 39920505#1 39920505#2 39920505#3"/>
    </vehicle>
    <vehicle id="40" depart="200.00">
        <route edges="39840494#2 39840494#3 39840494#4 474802256#1 474802256#2 474802256#3 474802256#4 1068447134#0 1068447134#1 1068447134#2 39839504#0 39839504#1 -1297720374 178583162#0 178583162#1 178583162#2 178583162#3 178583162#4 178583162#5 178583162#6 178583162#7"/>
    </vehicle>
    <vehicle id="41" depart="205.00">
        <route edges="11624973#4 900279892#0 900279892#1 900279892#2 11624985#0 11624985#1 11624985#2 11624985#3 11624985#4 456475105#0 456475105#1 456475105#2 456475105#3 1292568610 1074771162#0 1074771162#1 39763700#0 39763700#1 39763700#2 39763700#3"/>
    </vehicle>
    <vehicle id="42" depart="210.00">
        <route edges="-900279892#2 -900279892#1 -900279892#0 900279892#0 900279892#1 900279892#2 900279891#0 900279891#1 987438296 987438295 178441747#0 178441747#1 178441747#2 178441747#3"/>
    </vehicle>
    <vehicle id="43" depart="215.00">
        <route edges="178583140#0 178583140#1 9832326#3 9832326#4 9832326#5 -900279891#1 -900279891#0 -900279892#2 -900279892#1 -900279892#0 900279893"/>
    </vehicle>
    <vehicle id="44" depart="220.00">
        <route edges="178583151 900279895#0 900279895#1 900279895#2 987438294#0 987438294#1 987438294#2 900279888#0 900279888#1 1297720373 178583162#0 178583162#1 178583162#2 178583162#3 178583162#4 178583162#5 178583162#6 178583162#7 178583162#8 178583162#9 178583162#10 1297720371#0 1297720371#1 1297720371#2 1297720371#3 1068447134#0 1068447134#1 1068447134#2"/>
    </vehicle>
    <vehicle id="45" depart="225.00">
        <route edges="73898447#3 73898447#4 73898447#5 1297720371#0 1297720371#1 1297720371#2 1297720371#3 1068447134#0 1068447134#1 1068447134#2 39839504#0 39839504#1 47150994 900279892#0 900279892#1 900279892#2 900279891#0 900279891#1 987437440 39839521 150928465 1290439819 178583167#0 178583167#1 24621218#0 24621218#1 24621218#2 24621218#3 474143552#1 474143552#2 474143552#3 474143552#4 488788626#0 488788626#1"/>
    </vehicle>
    <vehicle id="46" depart="230.00">
        <route edges="1196980683#0 1196980683#1 1196980683#2 1196980683#3 1196980683#4 1196980683#5 39840268#5 39840268#6 474802256#4 1068447134#0 1068447134#1 1068447134#2 150928463#0 150928463#1 1068447133#1 1068447133#2 1068447133#3 1068447133#4 1068447133#5 1068447133#6 1074771168 483897834#0 483897834#1 483897834#2 483897834#3 1074771162#0 1074771162#1 39763700#0 39763700#1 39763700#2"/>
    </vehicle>
    <vehicle id="47" depart="235.00">
        <route edges="40297647#0 40297647#1 40297647#2 1235501860 178583140#0 178583140#1 9832326#3 9832326#4 9832326#5 -900279891#1 -900279891#0 -900279892#2 -900279892#1 -900279892#0 900279893 1297720373 178583162#0 178583162#1 178583162#2 178583162#3 178583162#4 178583162#5 178583162#6 178583162#7 178583162#8"/>
    </vehicle>
    <vehicle id="48" depart="240.00">
        <route edges="460316442 -460316442 47150988#2 47150988#3 47150988#4 178583162#0 178583162#1 178583162#2 178583162#3 178583162#4"/>
    </vehicle>
    <vehicle id="49" depart="245.00">
        <route edges="-1068447133#0 1068447133#0 1068447133#1 1068447133#2 178583140#9 1196980683#0 1196980683#1 1196980683#2 1196980683#3 1196980683#4 1196980683#5 1196980683#6 1196980683#7 1196980683#8"/>
    </vehicle>
    <vehicle id="50" depart="250.00">
        <route edges="-1297720374 1297720374 47150994 900279892#0 900279892#1 900279892#2 900279891#0 900279891#1 987438296 987438295 178441747#0 178441747#1 -73898795#2 -73898795#1 -73898795#0 73898795#0 73898795#1"/>
    </vehicle>
    <vehicle id="51" depart="255.00">
        <route edges="1196980683#3 1196980683#4 1196980683#5 39840268#5 39840268#6 474802256#4 1068447134#0 1068447134#1 1068447134#2 150928463#0 150928463#1 1068447133#1 1068447133#2 1068447133#3 1068447133#4 1068447133#5 1068447133#6 1074771169#0 1074771169#1 1074771169#2 1074771169#3 -39839919#8 -39839919#7 39840400#1 -39840400#1"/>
    </vehicle>
    <vehicle id="52" depart="260.00">
        <route edges="-47150988#3 -47150988#2 47150988#2 47150988#3 47150988#4 1297720374 47150994 900279892#0 900279892#1 900279892#2 900279891#0 900279891#1 987437440 39839521 150928465 1290439819 178583167#0 178583167#1 24621218#0 24621218#1 39921025#5"/>
    </vehicle>
    <vehicle id="53" depart="265.00">
        <route edges="40297647#1 40297647#2 1235501860 178583140#0 178583140#1 9832326#3 9832326#4 9832326#5 987438296 987438295 987438294#0 987438294#1 987438294#2 -987438294#2 -987438294#1"/>
    </vehicle>
    <vehicle id="54" depart="270.00">
        <route edges="178583140#9 1196980683#0 1196980683#1 1196980683#2 1196980683#3 1196980683#4 1196980683#5 39840268#5 39840268#6 474802256#4 1068447134#0 1068447134#1 1068447134#2 39839504#0 39839504#1 47150994 900279892#0 900279892#1 900279892#2 900279891#0 900279891#1 987437440 39839521 150928465 1290439818 1235501861#0 1235501861#1 1235501861#2 465144361 178699049"/>
    </vehicle>
    <vehicle id="55" depart="275.00">
        <route edges="11624973#3 475446753#1 475446753#2 475446753#3 475446753#4 475446753#5 475446753#6 475446753#7 150928465 1290439819 178583167#0 178583167#1 24621218#0 24621218#1 24621218#2 24621218#3 474143552#1 474143552#2 474143552#3 474143552#4 488788626#0 488788626#1 488788626#2"/>
    </vehicle>
    <vehicle id="56" depart="280.00">
        <route edges="15670277#2 -1068447133#6 -1068447133#5 -1068447133#4 -1068447133#3 -1068447133#2 -1068447133#1 -1068447133#0 -1297720374 -47150988#4 -47150988#3 -47150988#2 -47150988#1 490271618#0 490271618#1 1074771164#1"/>
    </vehicle>
    <vehicle id="57" depart="285.00">
        <route edges="178583162#9 178583162#10 1297720371#0 1297720371#1 1297720371#2 1297720371#3 1068447134#0 1068447134#1 1068447134#2 39839504#0 39839504#1 47150994 900279892#0 900279892#1 900279892#2 900279891#0 900279891#1 987437440 39839521 150928465 1290439819 178583167#0 178583167#1 24621218#0 24621218#1 24621218#2 24621218#3 474143552#1 474143552#2 39920550#1 39920550#2"/>
    </vehicle>
    <vehicle id="58" depart="290.00">
        <route edges="1074771162#1 1292578258 1292578259 1235501864 1292568609 15670277#0 15670277#1 15670277#2 -1068447133#6 -1068447133#5 -1068447133#4 -1068447133#3 178583140#9 1196980683#0 1196980683#1 1196980683#2 1196980683#3"/>
    </vehicle>
    <vehicle id="59" depart="295.00">
        <route edges="987438294#2 900279888#0 900279888#1 1297720373 1297720374 1068447133#0 1068447133#1 1068447133#2 1068447133#3 1068447133#4 1068447133#5 1068447133#6 1074771169#0 1074771169#1 1074771169#2 1074771169#3 -39839919#8 39840341#1 39840268#0"/>
    </vehicle>
    <vehicle id="60" depart="300.00">
        <route edges="-987437440 -900279891#1 -900279891#0 -900279892#2 -900279892#1 -900279892#0 -47150994 1068447133#0 1068447133#1 1068447133#2 1068447133#3 1068447133#4 1068447133#5 1068447133#6 1074771169#0"/>
    </vehicle>
    <vehicle id="61" depart="305.00">
        <route edges="1074771169#2 1074771169#3 -39839919#8 -39839919#7 -39839919#6 -39839919#5 -39839919#4 474802256#2 474802256#3 474802256#4 1068447134#0 1068447134#1 1068447134#2 39839504#0 39839504#1 -1297720374 -47150988#4 -47150988#3 -47150988#2 460316442 1064398289#3 178441749#0 178441749#1 1074771164#2 1074771164#3 1074771164#4 1074771164#5"/>
    </vehicle>
    <vehicle id="62" depart="310.00">
        <route edges="1074771169#2 1074771169#3 -39839919#8 -39839919#7 -39839919#6 73898394#4 73898394#5"/>
    </vehicle>
    <vehicle id="63" depart="315.00">
        <route edges="483897834#3 1074771162#0 1074771162#1 1292578258 1292578259 1235501864 1292568609 15670277#0 15670277#1 15670277#2 -1068447133#6 -1068447133#5 -1068447133#4 -1068447133#3 -1068447133#2 -1068447133#1 -1068447133#0 -1297720374 -47150988#4 -47150988#3 -47150988#2"/>
    </vehicle>
    <vehicle id="64" depart="320.00">
        <route edges="1074771164#2 1074771164#3 1074771164#4 1074771164#5 -987438294#2"/>
    </vehicle>
    <vehicle id="65" depart="325.00">
        <route edges="178583140#8 1068447133#3 1068447133#4 24577455#0 24577455#1 24577455#2 24577455#3 24577455#4 456475105#0 456475105#1 456475105#2 456475105#3"/>
    </vehicle>
    <vehicle id="66" depart="330.00">
        <route edges="47268380#3 73898394#1 39840268#2 39840268#3 39840268#4 39840268#5 39840268#6 474802256#4 1068447134#0 1068447134#1 1068447134#2 39839504#0 39839504#1 47150994 900279892#0 900279892#1 900279892#2 900279891#0 900279891#1 987437440 39839521 150928465 1290439818 1235501861#0 1235501861#1 1235501861#2 1074409255#0 1074409255#1 1074409255#2"/>
    </vehicle>
    <vehicle id="67" depart="335.00">
        <route edges="-73898795#0 1064476625#2 1292568612 666886086#0 1292568611 178583151 900279895#0 900279895#1 900279895#2 178441747#0 178441747#1"/>
    </vehicle>
    <vehicle id="68" depart="340.00">
        <route edges="15670277#2 -1068447133#6 -1068447133#5 24577455#0 24577455#1 24577455#2 24577455#3 24577455#4 24577455#5 24577455#6 24577455#7 24577455#8 24577455#9 24577455#10 24577455#11 9832326#2 178583140#2 178583140#3 178583140#4 178583140#5"/>
    </vehicle>
    <vehicle id="69" depart="345.00">
        <route edges="39920550#4 39920550#5 39920550#6 1235501860 178583140#0 178583140#1 178583140#2 178583140#3 178583140#4 178583140#5 178583140#6 178583140#7 178583140#8 178583140#9 1196980683#0 1196980683#1 1196980683#2 1196980683#3 1196980683#4 1196980683#5 39840268#5 39840268#6 39840268#7 39840268#8 39840268#9"/>
    </vehicle>
    <vehicle id="70" depart="350.00">
        <route edges="9832326#5 987438296 987438295 178441747#0 178441747#1 -73898795#2 -73898795#1 -73898795#0"/>
    </vehicle>
    <vehicle id="71" depart="355.00">
        <route edges="1323097580#1 474143552#0 474143552#1 474143552#2 474143552#3 474143552#4 488788626#0 488788626#1 488788626#2 178699054 1074409255#0 1074409255#1 1074409255#2 1074409255#3 1074409255#4 1074409255#5 1235501864"/>
    </vehicle>
    <vehicle id="72" depart="360.00">
        <route edges="488788626#0 488788626#1 488788626#2 40297647#0 40297647#1 40297647#2 1235501862 1100626103#0 1100626103#1"/>
    </vehicle>
    <vehicle id="73" depart="365.00">
        <route edges="1074409255#3 1074409255#4 1074409255#5 1235501864 1292568609 15670277#0 15670277#1 15670277#2 -1068447133#6 -1068447133#5 -1068447133#4 -1068447133#3 -1068447133#2 -1068447133#1 -1068447133#0 47150994 900279892#0 900279892#1 900279892#2 900279891#0 900279891#1 987438296 987438295 178441747#0 178441747#1 178441747#2 178441747#3 178441747#4 178441747#5 178441747#6 178441747#7 178441747#8 178441747#9"/>
    </vehicle>
    <vehicle id="74" depart="370.00">
        <route edges="15670277#1 15670277#2 -1068447133#6 -1068447133#5 -1068447133#4 -1068447133#3 -1068447133#2 -1068447133#1 475446753#0 475446753#1 475446753#2 475446753#3 475446753#4 11624985#2 11624985#3 11624985#4"/>
    </vehicle>
    <vehicle id="75" depart="375.00">
        <route edges="987438296 987438295 987438294#0 987438294#1 987438294#2 900279888#0 900279888#1 1297720373 1297720374 1068447133#0 475446753#0"/>
    </vehicle>
    <vehicle id="76" depart="380.00">
        <route edges="475446753#7 73898745 -73898738#0 -987437440 -900279891#1 -900279891#0 -900279892#2 -900279892#1 -900279892#0 -47150994 1068447133#0 1068447133#1 1068447133#2 1068447133#3"/>
    </vehicle>
    <vehicle id="77" depart="385.00">
        <route edges="178583148#0 178583167#1 24621218#0 24621218#1 24621218#2 24621218#3 474143552#1 474143552#2 474143552#3 474143552#4 488788626#0 488788626#1 488788626#2 178699054 1074409255#0 1074409255#1 1074409255#2 1074409255#3 1074409255#4 1074409255#5 1235501864 1292568609 15670277#0 15670277#1 15670277#2 -1068447133#6 -1068447133#5 -1068447133#4 -1068447133#3 -1068447133#2 -1068447133#1 -1068447133#0 -1297720374 -47150988#4 -47150988#3 -47150988#2 460316442 1064398289#3 178441749#0 178441749#1 1074771164#2"/>
    </vehicle>
    <vehicle id="78" depart="390.00">
        <route edges="1323097580#0 1323097580#1 474143552#0 474143552#1 474143552#2 474143552#3 474143552#4 488788626#0 488788626#1 488788626#2 178699054 1074409255#0 1074409255#1 1074409255#2 1074409255#3 1074409255#4 1074409255#5 1235501864 1292568609 15670277#0 15670277#1 15670277#2 1074771169#0 1074771169#1 1074771169#2 1074771169#3 -39839919#8 -39839919#7 39840400#1 -39840400#1"/>
    </vehicle>
    <vehicle id="79" depart="395.00">
        <route edges="11624973#3 475446753#1 475446753#2 475446753#3 475446753#4 11624985#2 11624985#3 11624985#4 456475105#0 456475105#1 456475105#2 456475105#3"/>
    </vehicle>
    <vehicle id="80" depart="400.00">
        <route edges="178583140#1 178583140#2 178583140#3 178583140#4 178583140#5 11624985#4 456475105#0 456475105#1 456475105#2 456475105#3 15670277#0 15670277#1 15670277#2"/>
    </vehicle>
    <vehicle id="81" depart="405.00">
        <route edges="900279895#0 900279895#1 900279895#2 987438294#0 987438294#1 987438294#2"/>
    </vehicle>
    <vehicle id="82" depart="410.00">
        <route edges="178583167#0 178583167#1 24621218#0 24621218#1 24621218#2 24621218#3 474143552#1 474143552#2 474143552#3 39920684#2 39920684#3"/>
    </vehicle>
    <vehicle id="83" depart="415.00">
        <route edges="-39841517#0 11624985#3 11624985#4 24577455#5 24577455#6 24577455#7 24577455#8 24577455#9 24577455#10"/>
    </vehicle>
    <vehicle id="84" depart="420.00">
        <route edges="178583155#0 178583155#1 666886086#2 666886086#3 1290439818 178583140#0 178583140#1 9832326#3 9832326#4 475446753#7"/>
    </vehicle>
    <vehicle id="85" depart="425.00">
        <route edges="1068447133#1 1068447133#2 -1068447133#2 -1068447133#1 -1068447133#0 47150994 900279892#0 900279892#1 900279892#2 900279891#0 900279891#1 987438296 987438295 -900279895#2 900279895#2"/>
    </vehicle>
    <vehicle id="86" depart="430.00">
        <route edges="-474143552#2 474143552#2 474143552#3 474143552#4 488788626#0 488788626#1 488788626#2 178699054 1074409255#0"/>
    </vehicle>
    <vehicle id="87" depart="435.00">
        <route edges="666886086#2 666886086#3 1290439818 1235501861#0 1235501861#1 1235501861#2 1064476624 1067852461 1125986405 40297647#0 40297647#1 40297647#2 1235501862 1100626103#0"/>
    </vehicle>
    <vehicle id="88" depart="440.00">
        <route edges="24577455#6 24577455#7 24577455#8 24577455#9 24577455#10 24577455#11 9832326#2 9832326#3 9832326#4 475446753#7 150928465 1290439819 178583167#0 178583167#1 24621218#0"/>
    </vehicle>
    <vehicle id="89" depart="445.00">
        <route edges="15670277#0 15670277#1 11624973#0 11624973#1 24577455#2 24577455#3 24577455#4 24577455#5 24577455#6 24577455#7 24577455#8 24577455#9 24577455#10"/>
    </vehicle>
    <vehicle id="90" depart="450.00">
        <route edges="178583162#2 178583162#3 178583162#4 178583162#5 178583162#6 178583162#7 178583162#8 178583162#9 178583162#10 1297720371#0 1297720371#1 1297720371#2 1297720371#3 1068447134#0 1068447134#1 1068447134#2 39839504#0 39839504#1 47150994 900279892#0 900279892#1 900279892#2 900279891#0 900279891#1 987438296 987438295 987438294#0 987438294#1 987438294#2 900279888#0 900279888#1"/>
    </vehicle>
    <vehicle id="91" depart="455.00">
        <route edges="1074771163#0 1074771163#1 1272548721 1074409232#0 1074409232#1 1064476623 1067852461 1125986405 40297647#0 40297647#1 40297647#2 1235501862 1100626103#0 39920505#0 39920505#1"/>
    </vehicle>
    <vehicle id="92" depart="460.00">
        <route edges="1196980683#6 1196980683#7 1196980683#8 1196980683#9 -39839919#4 474802256#2 474802256#3 474802256#4 1068447134#0 1068447134#1 1068447134#2 39839504#0 39839504#1 47150994 900279892#0 900279892#1 900279892#2 900279891#0 900279891#1 987437440 39839521 150928465 1290439819 178583167#0 178583167#1 24621218#0 24621218#1 24621218#2 24621218#3 474143552#1 474143552#2 474143552#3 474143552#4 488788626#0 39921025#0 39921025#1"/>
    </vehicle>
    <vehicle id="93" depart="465.00">
        <route edges="-47150994 47150994 900279892#0 900279892#1 900279892#2 900279891#0 900279891#1 987437440 39839521 24577522#0 178583140#1"/>
    </vehicle>
    <vehicle id="94" depart="470.00">
        <route edges="987438296 987438295"/>
    </vehicle>
    <vehicle id="95" depart="475.00">
        <route edges="-47150994 -1297720374 -47150988#4 -47150988#3 -47150988#2 460316442 1064398289#3 178441749#0 178441749#1 1074771164#2"/>
    </vehicle>
    <vehicle id="96" depart="480.00">